*SPEF "1481-1998"
*DESIGN "FIFO"
*DATE "Wed Feb 13 10:26:37 2019"
*VENDOR "Synopsys, Inc."
*PROGRAM "icc_shell"
*VERSION "L-2016.03-SP5-1"
*DESIGN_FLOW "PIN_CAP NONE"
*DIVIDER /
*DELIMITER :
*BUS_DELIMITER [ ]
*T_UNIT 1 NS
*C_UNIT 1 FF
*R_UNIT 1 OHM
*L_UNIT 1 HENRY

*NAME_MAP
*1 Data_In[1]
*2 Data_In[0]
*3 VDD
*4 VSS
*5 Data_In[9]
*6 Data_In[8]
*7 Data_In[7]
*8 Data_In[6]
*9 Data_In[5]
*10 Data_In[4]
*11 Data_In[3]
*12 Data_In[2]
*13 Data_In[17]
*14 Data_In[16]
*15 Data_In[15]
*16 Data_In[14]
*17 Data_In[13]
*18 Data_In[12]
*19 Data_In[11]
*20 Data_In[10]
*21 Data_In[25]
*22 Data_In[24]
*23 Data_In[23]
*24 Data_In[22]
*25 Data_In[21]
*26 Data_In[20]
*27 Data_In[19]
*28 Data_In[18]
*29 F_Data[1]
*30 F_Data[0]
*31 Data_In[31]
*32 Data_In[30]
*33 Data_In[29]
*34 Data_In[28]
*35 Data_In[27]
*36 Data_In[26]
*37 F_Data[9]
*38 F_Data[8]
*39 F_Data[7]
*40 F_Data[6]
*41 F_Data[5]
*42 F_Data[4]
*43 F_Data[3]
*44 F_Data[2]
*45 F_Data[17]
*46 F_Data[16]
*47 F_Data[15]
*48 F_Data[14]
*49 F_Data[13]
*50 F_Data[12]
*51 F_Data[11]
*52 F_Data[10]
*53 F_Data[25]
*54 F_Data[24]
*55 F_Data[23]
*56 F_Data[22]
*57 F_Data[21]
*58 F_Data[20]
*59 F_Data[19]
*60 F_Data[18]
*61 RstN
*62 Clk
*63 F_Data[31]
*64 F_Data[30]
*65 F_Data[29]
*66 F_Data[28]
*67 F_Data[27]
*68 F_Data[26]
*69 F_EmptyN
*70 F_FirstN
*71 F_SLastN
*72 F_LastN
*73 F_FullN
*74 FOutN
*75 FInN
*76 FClrN
*77 N47
*78 add_85/U2
*79 U301
*80 wr_ptr\[31\]
*81 memblk/U138
*82 wr_ptr_reg\[31\]
*83 add_85/carry\[31\]
*84 add_85/U1_1_30
*85 wr_ptr\[0\]
*86 add_85/U1
*87 add_85/U1_1_1
*88 memblk/U260
*89 memblk/U165
*90 memblk/U10
*91 U201
*92 wr_ptr_reg\[0\]
*93 N16
*94 N17
*95 U205
*96 wr_ptr\[1\]
*97 memblk/U167
*98 memblk/U9
*99 wr_ptr_reg\[1\]
*100 add_85/carry\[2\]
*101 add_85/U1_1_2
*102 N19
*103 add_85/U1_1_3
*104 U255
*105 add_85/carry\[3\]
*106 wr_ptr\[3\]
*107 memblk/U137
*108 wr_ptr_reg\[3\]
*109 add_85/carry\[4\]
*110 add_85/U1_1_4
*111 N27
*112 add_85/U1_1_11
*113 U306
*114 add_85/carry\[11\]
*115 add_85/U1_1_10
*116 wr_ptr\[11\]
*117 memblk/U140
*118 wr_ptr_reg\[11\]
*119 add_85/carry\[12\]
*120 add_85/U1_1_12
*121 N26
*122 U268
*123 add_85/carry\[10\]
*124 add_85/U1_1_9
*125 wr_ptr\[10\]
*126 wr_ptr_reg\[10\]
*127 N31
*128 add_85/U1_1_15
*129 U230
*130 add_85/carry\[15\]
*131 add_85/U1_1_14
*132 wr_ptr\[15\]
*133 memblk/U166
*134 wr_ptr_reg\[15\]
*135 add_85/carry\[16\]
*136 add_85/U1_1_16
*137 N23
*138 add_85/U1_1_7
*139 U198
*140 add_85/carry\[7\]
*141 add_85/U1_1_6
*142 wr_ptr\[7\]
*143 memblk/U136
*144 wr_ptr_reg\[7\]
*145 add_85/carry\[8\]
*146 add_85/U1_1_8
*147 N33
*148 add_85/U1_1_17
*149 U196
*150 add_85/carry\[17\]
*151 wr_ptr\[17\]
*152 memblk/U143
*153 wr_ptr_reg\[17\]
*154 add_85/carry\[18\]
*155 add_85/U1_1_18
*156 N37
*157 add_85/U1_1_21
*158 U195
*159 add_85/carry\[21\]
*160 add_85/U1_1_20
*161 wr_ptr\[21\]
*162 memblk/U142
*163 wr_ptr_reg\[21\]
*164 add_85/carry\[22\]
*165 add_85/U1_1_22
*166 N41
*167 add_85/U1_1_25
*168 U192
*169 add_85/carry\[25\]
*170 add_85/U1_1_24
*171 wr_ptr\[25\]
*172 memblk/U139
*173 wr_ptr_reg\[25\]
*174 add_85/carry\[26\]
*175 add_85/U1_1_26
*176 N45
*177 add_85/U1_1_29
*178 U191
*179 add_85/carry\[29\]
*180 add_85/U1_1_28
*181 wr_ptr\[29\]
*182 wr_ptr_reg\[29\]
*183 add_85/carry\[30\]
*184 N18
*185 U200
*186 wr_ptr\[2\]
*187 wr_ptr_reg\[2\]
*188 N20
*189 U216
*190 wr_ptr\[4\]
*191 wr_ptr_reg\[4\]
*192 add_85/carry\[5\]
*193 add_85/U1_1_5
*194 N24
*195 U197
*196 wr_ptr\[8\]
*197 wr_ptr_reg\[8\]
*198 add_85/carry\[9\]
*199 N28
*200 U232
*201 wr_ptr\[12\]
*202 wr_ptr_reg\[12\]
*203 add_85/carry\[13\]
*204 add_85/U1_1_13
*205 N32
*206 U203
*207 wr_ptr\[16\]
*208 wr_ptr_reg\[16\]
*209 N29
*210 U231
*211 wr_ptr\[13\]
*212 wr_ptr_reg\[13\]
*213 add_85/carry\[14\]
*214 N34
*215 U265
*216 wr_ptr\[18\]
*217 wr_ptr_reg\[18\]
*218 add_85/carry\[19\]
*219 add_85/U1_1_19
*220 N38
*221 U194
*222 wr_ptr\[22\]
*223 wr_ptr_reg\[22\]
*224 add_85/carry\[23\]
*225 add_85/U1_1_23
*226 N42
*227 U193
*228 wr_ptr\[26\]
*229 wr_ptr_reg\[26\]
*230 add_85/carry\[27\]
*231 add_85/U1_1_27
*232 N21
*233 U199
*234 wr_ptr\[5\]
*235 wr_ptr_reg\[5\]
*236 add_85/carry\[6\]
*237 N25
*238 U215
*239 wr_ptr\[9\]
*240 wr_ptr_reg\[9\]
*241 N30
*242 U214
*243 wr_ptr\[14\]
*244 wr_ptr_reg\[14\]
*245 N35
*246 U213
*247 wr_ptr\[19\]
*248 wr_ptr_reg\[19\]
*249 add_85/carry\[20\]
*250 N39
*251 U212
*252 wr_ptr\[23\]
*253 wr_ptr_reg\[23\]
*254 add_85/carry\[24\]
*255 N43
*256 U304
*257 wr_ptr\[27\]
*258 wr_ptr_reg\[27\]
*259 add_85/carry\[28\]
*260 N22
*261 U204
*262 wr_ptr\[6\]
*263 wr_ptr_reg\[6\]
*264 N36
*265 U202
*266 wr_ptr\[20\]
*267 wr_ptr_reg\[20\]
*268 N40
*269 U229
*270 wr_ptr\[24\]
*271 wr_ptr_reg\[24\]
*272 N44
*273 U307
*274 wr_ptr\[28\]
*275 wr_ptr_reg\[28\]
*276 N46
*277 U289
*278 wr_ptr\[30\]
*279 wr_ptr_reg\[30\]
*280 N79
*281 add_88/U2
*282 U247
*283 rd_ptr\[31\]
*284 rd_ptr_reg\[31\]
*285 add_88/carry\[31\]
*286 add_88/U1_1_30
*287 rd_ptr\[0\]
*288 add_88/U1
*289 add_88/U1_1_1
*290 U303
*291 rd_ptr_reg\[0\]
*292 memblk/U36
*293 memblk/U170
*294 memblk/U235
*295 N48
*296 N49
*297 U291
*298 rd_ptr\[1\]
*299 memblk/U236
*300 rd_ptr_reg\[1\]
*301 memblk/U35
*302 add_88/carry\[2\]
*303 add_88/U1_1_2
*304 N69
*305 add_88/U1_1_21
*306 U256
*307 add_88/carry\[21\]
*308 add_88/U1_1_20
*309 rd_ptr\[21\]
*310 rd_ptr_reg\[21\]
*311 add_88/carry\[22\]
*312 add_88/U1_1_22
*313 N70
*314 U257
*315 rd_ptr\[22\]
*316 rd_ptr_reg\[22\]
*317 add_88/carry\[23\]
*318 add_88/U1_1_23
*319 N74
*320 add_88/U1_1_26
*321 U259
*322 add_88/carry\[26\]
*323 add_88/U1_1_25
*324 rd_ptr\[26\]
*325 rd_ptr_reg\[26\]
*326 add_88/carry\[27\]
*327 add_88/U1_1_27
*328 N75
*329 U260
*330 rd_ptr\[27\]
*331 rd_ptr_reg\[27\]
*332 add_88/carry\[28\]
*333 add_88/U1_1_28
*334 N77
*335 add_88/U1_1_29
*336 U258
*337 add_88/carry\[29\]
*338 rd_ptr\[29\]
*339 rd_ptr_reg\[29\]
*340 add_88/carry\[30\]
*341 N50
*342 U228
*343 rd_ptr\[2\]
*344 rd_ptr_reg\[2\]
*345 add_88/carry\[3\]
*346 add_88/U1_1_3
*347 N51
*348 U227
*349 rd_ptr\[3\]
*350 rd_ptr_reg\[3\]
*351 add_88/carry\[4\]
*352 add_88/U1_1_4
*353 N52
*354 U211
*355 rd_ptr\[4\]
*356 rd_ptr_reg\[4\]
*357 add_88/carry\[5\]
*358 add_88/U1_1_5
*359 N53
*360 U226
*361 rd_ptr\[5\]
*362 rd_ptr_reg\[5\]
*363 add_88/carry\[6\]
*364 add_88/U1_1_6
*365 N54
*366 U278
*367 rd_ptr\[6\]
*368 rd_ptr_reg\[6\]
*369 add_88/carry\[7\]
*370 add_88/U1_1_7
*371 N55
*372 U225
*373 rd_ptr\[7\]
*374 rd_ptr_reg\[7\]
*375 add_88/carry\[8\]
*376 add_88/U1_1_8
*377 N56
*378 U224
*379 rd_ptr\[8\]
*380 rd_ptr_reg\[8\]
*381 add_88/carry\[9\]
*382 add_88/U1_1_9
*383 N57
*384 U210
*385 rd_ptr\[9\]
*386 rd_ptr_reg\[9\]
*387 add_88/carry\[10\]
*388 add_88/U1_1_10
*389 N58
*390 U223
*391 rd_ptr\[10\]
*392 rd_ptr_reg\[10\]
*393 add_88/carry\[11\]
*394 add_88/U1_1_11
*395 N59
*396 U279
*397 rd_ptr\[11\]
*398 rd_ptr_reg\[11\]
*399 add_88/carry\[12\]
*400 add_88/U1_1_12
*401 N60
*402 U222
*403 rd_ptr\[12\]
*404 rd_ptr_reg\[12\]
*405 add_88/carry\[13\]
*406 add_88/U1_1_13
*407 N61
*408 U221
*409 rd_ptr\[13\]
*410 rd_ptr_reg\[13\]
*411 add_88/carry\[14\]
*412 add_88/U1_1_14
*413 N62
*414 U209
*415 rd_ptr\[14\]
*416 rd_ptr_reg\[14\]
*417 add_88/carry\[15\]
*418 add_88/U1_1_15
*419 N63
*420 U220
*421 rd_ptr\[15\]
*422 rd_ptr_reg\[15\]
*423 add_88/carry\[16\]
*424 add_88/U1_1_16
*425 N64
*426 U275
*427 rd_ptr\[16\]
*428 rd_ptr_reg\[16\]
*429 add_88/carry\[17\]
*430 add_88/U1_1_17
*431 N65
*432 U219
*433 rd_ptr\[17\]
*434 rd_ptr_reg\[17\]
*435 add_88/carry\[18\]
*436 add_88/U1_1_18
*437 N66
*438 U218
*439 rd_ptr\[18\]
*440 rd_ptr_reg\[18\]
*441 add_88/carry\[19\]
*442 add_88/U1_1_19
*443 N67
*444 U208
*445 rd_ptr\[19\]
*446 rd_ptr_reg\[19\]
*447 add_88/carry\[20\]
*448 N68
*449 U277
*450 rd_ptr\[20\]
*451 rd_ptr_reg\[20\]
*452 N71
*453 U207
*454 rd_ptr\[23\]
*455 rd_ptr_reg\[23\]
*456 add_88/carry\[24\]
*457 add_88/U1_1_24
*458 N72
*459 U217
*460 rd_ptr\[24\]
*461 rd_ptr_reg\[24\]
*462 add_88/carry\[25\]
*463 N73
*464 U276
*465 rd_ptr\[25\]
*466 rd_ptr_reg\[25\]
*467 N76
*468 U206
*469 rd_ptr\[28\]
*470 rd_ptr_reg\[28\]
*471 N78
*472 U285
*473 rd_ptr\[30\]
*474 rd_ptr_reg\[30\]
*475 N115
*476 add_91/U2
*477 U274
*478 fcounter\[31\]
*479 sub_94/U73
*480 U142
*481 fcounter_reg\[31\]
*482 add_91/carry\[31\]
*483 add_91/U1_1_30
*484 fcounter\[0\]
*485 add_91/U1
*486 add_91/U1_1_1
*487 U313
*488 U188
*489 fcounter_reg\[0\]
*490 sub_94/U41
*491 sub_94/U31
*492 sub_94/U28
*493 sub_94/U26
*494 N84
*495 N87
*496 add_91/U1_1_3
*497 U267
*498 add_91/carry\[3\]
*499 add_91/U1_1_2
*500 fcounter\[3\]
*501 fcounter_reg\[3\]
*502 sub_94/U3
*503 sub_94/U2
*504 sub_94/U1
*505 add_91/carry\[4\]
*506 add_91/U1_1_4
*507 N85
*508 U311
*509 fcounter\[1\]
*510 sub_94/U55
*511 U147
*512 U146
*513 fcounter_reg\[1\]
*514 add_91/carry\[2\]
*515 N98
*516 add_91/U1_1_14
*517 U242
*518 add_91/carry\[14\]
*519 add_91/U1_1_13
*520 fcounter\[14\]
*521 sub_94/U101
*522 sub_94/U100
*523 sub_94/U53
*524 sub_94/U51
*525 U251
*526 fcounter_reg\[14\]
*527 add_91/carry\[15\]
*528 add_91/U1_1_15
*529 N97
*530 U236
*531 add_91/carry\[13\]
*532 add_91/U1_1_12
*533 fcounter\[13\]
*534 sub_94/U102
*535 sub_94/U50
*536 sub_94/U48
*537 sub_94/U44
*538 fcounter_reg\[13\]
*539 N89
*540 add_91/U1_1_5
*541 U270
*542 add_91/carry\[5\]
*543 fcounter\[5\]
*544 sub_94/U110
*545 sub_94/U12
*546 fcounter_reg\[5\]
*547 add_91/carry\[6\]
*548 add_91/U1_1_6
*549 N91
*550 add_91/U1_1_7
*551 U272
*552 add_91/carry\[7\]
*553 fcounter\[7\]
*554 sub_94/U108
*555 sub_94/U14
*556 U254
*557 fcounter_reg\[7\]
*558 add_91/carry\[8\]
*559 add_91/U1_1_8
*560 N92
*561 U273
*562 fcounter\[8\]
*563 sub_94/U107
*564 sub_94/U16
*565 fcounter_reg\[8\]
*566 add_91/carry\[9\]
*567 add_91/U1_1_9
*568 N113
*569 add_91/U1_1_29
*570 U271
*571 add_91/carry\[29\]
*572 add_91/U1_1_28
*573 fcounter\[29\]
*574 sub_94/U77
*575 sub_94/U76
*576 U252
*577 fcounter_reg\[29\]
*578 add_91/carry\[30\]
*579 N111
*580 add_91/U1_1_27
*581 U263
*582 add_91/carry\[27\]
*583 add_91/U1_1_26
*584 fcounter\[27\]
*585 sub_94/U81
*586 sub_94/U80
*587 U253
*588 fcounter_reg\[27\]
*589 add_91/carry\[28\]
*590 N112
*591 U264
*592 fcounter\[28\]
*593 sub_94/U79
*594 sub_94/U78
*595 fcounter_reg\[28\]
*596 N95
*597 add_91/U1_1_11
*598 U280
*599 add_91/carry\[11\]
*600 add_91/U1_1_10
*601 fcounter\[11\]
*602 sub_94/U104
*603 sub_94/U18
*604 fcounter_reg\[11\]
*605 U52
*606 add_91/carry\[12\]
*607 N88
*608 U269
*609 fcounter\[4\]
*610 sub_94/U72
*611 fcounter_reg\[4\]
*612 N114
*613 U314
*614 fcounter\[30\]
*615 sub_94/U75
*616 sub_94/U74
*617 fcounter_reg\[30\]
*618 N93
*619 U238
*620 fcounter\[9\]
*621 sub_94/U106
*622 sub_94/U23
*623 fcounter_reg\[9\]
*624 add_91/carry\[10\]
*625 N94
*626 U240
*627 fcounter\[10\]
*628 sub_94/U105
*629 sub_94/U24
*630 fcounter_reg\[10\]
*631 N104
*632 add_91/U1_1_20
*633 U180
*634 add_91/carry\[20\]
*635 add_91/U1_1_19
*636 fcounter\[20\]
*637 sub_94/U93
*638 sub_94/U92
*639 sub_94/U60
*640 fcounter_reg\[20\]
*641 U55
*642 add_91/carry\[21\]
*643 add_91/U1_1_21
*644 N99
*645 U177
*646 fcounter\[15\]
*647 sub_94/U99
*648 sub_94/U98
*649 sub_94/U54
*650 fcounter_reg\[15\]
*651 add_91/carry\[16\]
*652 add_91/U1_1_16
*653 N103
*654 U176
*655 add_91/carry\[19\]
*656 add_91/U1_1_18
*657 fcounter\[19\]
*658 sub_94/U95
*659 sub_94/U94
*660 sub_94/U59
*661 fcounter_reg\[19\]
*662 N106
*663 add_91/U1_1_22
*664 U179
*665 add_91/carry\[22\]
*666 fcounter\[22\]
*667 sub_94/U90
*668 sub_94/U89
*669 sub_94/U62
*670 fcounter_reg\[22\]
*671 U54
*672 add_91/carry\[23\]
*673 add_91/U1_1_23
*674 N96
*675 U283
*676 fcounter\[12\]
*677 sub_94/U103
*678 sub_94/U46
*679 sub_94/U8
*680 fcounter_reg\[12\]
*681 N109
*682 add_91/U1_1_25
*683 U183
*684 add_91/carry\[25\]
*685 add_91/U1_1_24
*686 fcounter\[25\]
*687 sub_94/U85
*688 sub_94/U84
*689 fcounter_reg\[25\]
*690 add_91/carry\[26\]
*691 N86
*692 U281
*693 fcounter\[2\]
*694 sub_94/U27
*695 fcounter_reg\[2\]
*696 N100
*697 U181
*698 fcounter\[16\]
*699 sub_94/U97
*700 fcounter_reg\[16\]
*701 add_91/carry\[17\]
*702 add_91/U1_1_17
*703 N108
*704 U178
*705 add_91/carry\[24\]
*706 fcounter\[24\]
*707 sub_94/U86
*708 sub_94/U57
*709 fcounter_reg\[24\]
*710 N90
*711 U286
*712 fcounter\[6\]
*713 sub_94/U109
*714 sub_94/U6
*715 fcounter_reg\[6\]
*716 N110
*717 U182
*718 fcounter\[26\]
*719 sub_94/U83
*720 sub_94/U82
*721 fcounter_reg\[26\]
*722 N107
*723 U174
*724 fcounter\[23\]
*725 sub_94/U88
*726 fcounter_reg\[23\]
*727 N102
*728 U184
*729 add_91/carry\[18\]
*730 fcounter\[18\]
*731 sub_94/U96
*732 sub_94/U49
*733 fcounter_reg\[18\]
*734 N105
*735 U175
*736 fcounter\[21\]
*737 sub_94/U91
*738 fcounter_reg\[21\]
*739 N101
*740 U185
*741 fcounter\[17\]
*742 sub_94/U52
*743 sub_94/U37
*744 fcounter_reg\[17\]
*745 sub_94/n56
*746 sub_94/U111
*747 sub_94/U11
*748 sub_94/n58
*749 sub_94/U25
*750 sub_94/U40
*751 sub_94/n12
*752 sub_94/n55
*753 sub_94/U13
*754 sub_94/n54
*755 sub_94/U7
*756 sub_94/n53
*757 sub_94/U15
*758 sub_94/n51
*759 sub_94/U17
*760 sub_94/n52
*761 sub_94/U21
*762 sub_94/n80
*763 sub_94/U22
*764 sub_94/n79
*765 sub_94/U19
*766 sub_94/n78
*767 sub_94/U39
*768 sub_94/n77
*769 sub_94/U33
*770 sub_94/n76
*771 sub_94/U32
*772 N130
*773 U243
*774 sub_94/n29
*775 sub_94/n75
*776 sub_94/U34
*777 N131
*778 sub_94/n30
*779 N132
*780 sub_94/n11
*781 sub_94/U43
*782 sub_94/U38
*783 N134
*784 sub_94/n73
*785 sub_94/U36
*786 sub_94/n31
*787 sub_94/U63
*788 sub_94/n71
*789 sub_94/U68
*790 sub_94/n72
*791 sub_94/U47
*792 N135
*793 sub_94/n32
*794 sub_94/n70
*795 sub_94/U69
*796 N136
*797 sub_94/n33
*798 N137
*799 sub_94/n34
*800 sub_94/U70
*801 sub_94/n68
*802 sub_94/U64
*803 sub_94/n69
*804 sub_94/U58
*805 sub_94/U20
*806 N138
*807 sub_94/n35
*808 N139
*809 sub_94/n19
*810 sub_94/U35
*811 sub_94/n66
*812 sub_94/U87
*813 sub_94/U65
*814 sub_94/n23
*815 sub_94/U61
*816 sub_94/n18
*817 N140
*818 sub_94/n67
*819 sub_94/n36
*820 sub_94/n65
*821 sub_94/U9
*822 N141
*823 sub_94/n37
*824 sub_94/n64
*825 sub_94/U66
*826 N142
*827 sub_94/n38
*828 sub_94/n63
*829 sub_94/U10
*830 N143
*831 sub_94/n39
*832 sub_94/n62
*833 sub_94/U67
*834 N144
*835 sub_94/n40
*836 sub_94/n60
*837 sub_94/U71
*838 N145
*839 sub_94/n41
*840 N146
*841 sub_94/n59
*842 N147
*843 N120
*844 sub_94/n57
*845 sub_94/U42
*846 sub_94/n47
*847 sub_94/n24
*848 sub_94/n22
*849 sub_94/n21
*850 sub_94/n16
*851 sub_94/n15
*852 sub_94/n14
*853 sub_94/n10
*854 sub_94/n9
*855 sub_94/U45
*856 sub_94/n8
*857 sub_94/n6
*858 sub_94/n5
*859 sub_94/n4
*860 sub_94/n7
*861 N129
*862 U237
*863 sub_94/n28
*864 sub_94/n13
*865 N116
*866 sub_94/n48
*867 sub_94/n27
*868 sub_94/n74
*869 N133
*870 sub_94/n61
*871 sub_94/U29
*872 sub_94/n49
*873 N117
*874 N118
*875 sub_94/n3
*876 N126
*877 U241
*878 sub_94/n25
*879 N125
*880 U239
*881 sub_94/n42
*882 sub_94/n26
*883 N127
*884 sub_94/n43
*885 N124
*886 sub_94/n44
*887 N123
*888 sub_94/n46
*889 N121
*890 N128
*891 sub_94/n45
*892 N122
*893 N119
*894 memblk/n7
*895 memblk/U60
*896 memblk/U46
*897 memblk/U24
*898 memblk/U63
*899 memblk/U53
*900 memblk/U44
*901 memblk/U52
*902 memblk/U245
*903 memblk/U157
*904 memblk/U42
*905 memblk/U51
*906 memblk/U249
*907 memblk/U41
*908 memblk/U48
*909 memblk/U4
*910 memblk/U57
*911 memblk/U247
*912 memblk/U43
*913 memblk/U58
*914 memblk/U45
*915 memblk/U156
*916 memblk/U47
*917 memblk/U56
*918 memblk/U59
*919 memblk/U246
*920 memblk/U55
*921 memblk/U62
*922 memblk/U54
*923 memblk/U50
*924 memblk/U61
*925 memblk/U49
*926 memblk/U248
*927 memblk/U82
*928 memblk/n213
*929 memblk/U250
*930 memblk/U111
*931 memblk/U116
*932 memblk/U115
*933 memblk/U122
*934 memblk/U118
*935 memblk/U64
*936 memblk/U106
*937 memblk/U108
*938 memblk/U107
*939 memblk/U105
*940 memblk/U149
*941 memblk/U109
*942 memblk/U90
*943 memblk/U121
*944 memblk/U96
*945 memblk/U21
*946 memblk/U146
*947 memblk/U164
*948 memblk/U117
*949 memblk/U252
*950 memblk/U120
*951 memblk/U112
*952 memblk/U114
*953 memblk/U110
*954 memblk/U89
*955 memblk/U80
*956 memblk/U119
*957 memblk/U103
*958 memblk/U258
*959 memblk/U79
*960 memblk/U113
*961 memblk/U104
*962 memblk/n8
*963 memblk/U263
*964 memblk/U20
*965 memblk/n12
*966 memblk/n14
*967 memblk/n15
*968 memblk/U262
*969 memblk/n13
*970 memblk/n16
*971 memblk/n18
*972 memblk/n19
*973 memblk/n17
*974 memblk/n121
*975 memblk/FIFO_reg\[0\]\[4\]
*976 memblk/n210
*977 memblk/n209
*978 memblk/U162
*979 memblk/n114
*980 memblk/U256
*981 memblk/FIFO_reg\[1\]\[29\]
*982 memblk/n208
*983 memblk/n207
*984 memblk/U255
*985 memblk/U168
*986 memblk/n82
*987 memblk/FIFO_reg\[2\]\[29\]
*988 memblk/n206
*989 memblk/n10
*990 memblk/U132
*991 memblk/U102
*992 memblk/U27
*993 memblk/U92
*994 memblk/U135
*995 memblk/U150
*996 memblk/U144
*997 memblk/U141
*998 memblk/U84
*999 memblk/U26
*1000 memblk/U134
*1001 memblk/U95
*1002 memblk/U18
*1003 memblk/U19
*1004 memblk/U14
*1005 memblk/U131
*1006 memblk/U88
*1007 memblk/U78
*1008 memblk/U94
*1009 memblk/U81
*1010 memblk/U133
*1011 memblk/U77
*1012 memblk/U93
*1013 memblk/U101
*1014 memblk/U100
*1015 memblk/U98
*1016 memblk/U99
*1017 memblk/U83
*1018 memblk/U97
*1019 memblk/U87
*1020 memblk/U91
*1021 memblk/U65
*1022 memblk/n131
*1023 memblk/FIFO_reg\[0\]\[14\]
*1024 memblk/n205
*1025 memblk/n204
*1026 memblk/U161
*1027 memblk/n80
*1028 memblk/U251
*1029 memblk/FIFO_reg\[2\]\[27\]
*1030 memblk/n203
*1031 memblk/n202
*1032 memblk/U160
*1033 memblk/n133
*1034 memblk/FIFO_reg\[0\]\[16\]
*1035 memblk/n201
*1036 memblk/n200
*1037 memblk/U159
*1038 memblk/FIFO\[3\]\[27\]
*1039 memblk/U225
*1040 memblk/FIFO_reg\[3\]\[27\]
*1041 memblk/n48
*1042 memblk/FIFO\[3\]\[1\]
*1043 memblk/U173
*1044 memblk/FIFO_reg\[3\]\[1\]
*1045 memblk/n22
*1046 memblk/U124
*1047 memblk/n51
*1048 memblk/FIFO_reg\[3\]\[30\]
*1049 memblk/n199
*1050 memblk/n198
*1051 memblk/U163
*1052 memblk/n50
*1053 memblk/FIFO_reg\[3\]\[29\]
*1054 memblk/n197
*1055 memblk/FIFO\[3\]\[28\]
*1056 memblk/U227
*1057 memblk/FIFO_reg\[3\]\[28\]
*1058 memblk/n49
*1059 memblk/U68
*1060 memblk/n181
*1061 memblk/U204
*1062 memblk/U232
*1063 memblk/U196
*1064 memblk/U230
*1065 memblk/U234
*1066 memblk/U198
*1067 memblk/U206
*1068 memblk/U200
*1069 memblk/U208
*1070 memblk/U202
*1071 memblk/U212
*1072 memblk/U194
*1073 memblk/U216
*1074 memblk/U218
*1075 memblk/U192
*1076 memblk/U214
*1077 memblk/U190
*1078 memblk/U222
*1079 memblk/U188
*1080 memblk/U228
*1081 memblk/U210
*1082 memblk/U178
*1083 memblk/U186
*1084 memblk/U184
*1085 memblk/U226
*1086 memblk/U176
*1087 memblk/U224
*1088 memblk/U174
*1089 memblk/U182
*1090 memblk/U220
*1091 memblk/U180
*1092 memblk/U172
*1093 memblk/n188
*1094 memblk/U73
*1095 memblk/U126
*1096 memblk/U74
*1097 memblk/U130
*1098 memblk/U154
*1099 memblk/U69
*1100 memblk/U25
*1101 memblk/U152
*1102 memblk/U155
*1103 memblk/U129
*1104 memblk/U128
*1105 memblk/U151
*1106 memblk/U153
*1107 memblk/U148
*1108 memblk/U8
*1109 memblk/U127
*1110 memblk/U76
*1111 memblk/U72
*1112 memblk/U75
*1113 memblk/U86
*1114 memblk/U71
*1115 memblk/U67
*1116 memblk/U66
*1117 memblk/U145
*1118 memblk/U125
*1119 memblk/U147
*1120 memblk/U85
*1121 memblk/U70
*1122 memblk/U123
*1123 memblk/n178
*1124 memblk/U203
*1125 memblk/U195
*1126 memblk/U231
*1127 memblk/U197
*1128 memblk/U233
*1129 memblk/U229
*1130 memblk/U205
*1131 memblk/U207
*1132 memblk/U193
*1133 memblk/U201
*1134 memblk/U199
*1135 memblk/U211
*1136 memblk/U215
*1137 memblk/U191
*1138 memblk/U189
*1139 memblk/U185
*1140 memblk/U213
*1141 memblk/U217
*1142 memblk/U177
*1143 memblk/U179
*1144 memblk/U221
*1145 memblk/U187
*1146 memblk/U209
*1147 memblk/U175
*1148 memblk/U183
*1149 memblk/U181
*1150 memblk/U223
*1151 memblk/U219
*1152 memblk/U171
*1153 memblk/n192
*1154 memblk/n179
*1155 memblk/n183
*1156 memblk/U169
*1157 memblk/n184
*1158 memblk/n180
*1159 memblk/FIFO\[0\]\[31\]
*1160 memblk/FIFO_reg\[0\]\[31\]
*1161 memblk/FIFO\[1\]\[31\]
*1162 memblk/FIFO_reg\[1\]\[31\]
*1163 memblk/FIFO\[2\]\[31\]
*1164 memblk/FIFO_reg\[2\]\[31\]
*1165 memblk/n4
*1166 memblk/FIFO\[3\]\[31\]
*1167 memblk/FIFO_reg\[3\]\[31\]
*1168 memblk/n177
*1169 memblk/FIFO\[0\]\[30\]
*1170 memblk/FIFO_reg\[0\]\[30\]
*1171 memblk/FIFO\[1\]\[30\]
*1172 memblk/FIFO_reg\[1\]\[30\]
*1173 memblk/FIFO\[2\]\[30\]
*1174 memblk/FIFO_reg\[2\]\[30\]
*1175 memblk/FIFO\[3\]\[30\]
*1176 memblk/n176
*1177 memblk/FIFO\[0\]\[29\]
*1178 memblk/FIFO_reg\[0\]\[29\]
*1179 memblk/FIFO\[1\]\[29\]
*1180 memblk/FIFO\[2\]\[29\]
*1181 memblk/FIFO\[3\]\[29\]
*1182 memblk/n175
*1183 memblk/FIFO\[0\]\[28\]
*1184 memblk/FIFO_reg\[0\]\[28\]
*1185 memblk/FIFO\[1\]\[28\]
*1186 memblk/FIFO_reg\[1\]\[28\]
*1187 memblk/FIFO\[2\]\[28\]
*1188 memblk/FIFO_reg\[2\]\[28\]
*1189 memblk/n174
*1190 memblk/FIFO\[0\]\[27\]
*1191 memblk/FIFO_reg\[0\]\[27\]
*1192 memblk/FIFO\[1\]\[27\]
*1193 memblk/FIFO_reg\[1\]\[27\]
*1194 memblk/FIFO\[2\]\[27\]
*1195 memblk/n173
*1196 memblk/FIFO\[0\]\[26\]
*1197 memblk/FIFO_reg\[0\]\[26\]
*1198 memblk/n182
*1199 memblk/FIFO\[1\]\[26\]
*1200 memblk/FIFO_reg\[1\]\[26\]
*1201 memblk/FIFO\[2\]\[26\]
*1202 memblk/FIFO_reg\[2\]\[26\]
*1203 memblk/FIFO\[3\]\[26\]
*1204 memblk/FIFO_reg\[3\]\[26\]
*1205 memblk/n172
*1206 memblk/FIFO\[0\]\[25\]
*1207 memblk/FIFO_reg\[0\]\[25\]
*1208 memblk/FIFO\[1\]\[25\]
*1209 memblk/FIFO_reg\[1\]\[25\]
*1210 memblk/FIFO\[2\]\[25\]
*1211 memblk/FIFO_reg\[2\]\[25\]
*1212 memblk/FIFO\[3\]\[25\]
*1213 memblk/FIFO_reg\[3\]\[25\]
*1214 memblk/n171
*1215 memblk/FIFO\[0\]\[24\]
*1216 memblk/FIFO_reg\[0\]\[24\]
*1217 memblk/FIFO\[1\]\[24\]
*1218 memblk/FIFO_reg\[1\]\[24\]
*1219 memblk/FIFO\[2\]\[24\]
*1220 memblk/FIFO_reg\[2\]\[24\]
*1221 memblk/FIFO\[3\]\[24\]
*1222 memblk/FIFO_reg\[3\]\[24\]
*1223 memblk/n170
*1224 memblk/FIFO\[0\]\[23\]
*1225 memblk/FIFO_reg\[0\]\[23\]
*1226 memblk/FIFO\[1\]\[23\]
*1227 memblk/FIFO_reg\[1\]\[23\]
*1228 memblk/FIFO\[2\]\[23\]
*1229 memblk/FIFO_reg\[2\]\[23\]
*1230 memblk/FIFO\[3\]\[23\]
*1231 memblk/FIFO_reg\[3\]\[23\]
*1232 memblk/n169
*1233 memblk/FIFO\[0\]\[22\]
*1234 memblk/FIFO_reg\[0\]\[22\]
*1235 memblk/FIFO\[1\]\[22\]
*1236 memblk/FIFO_reg\[1\]\[22\]
*1237 memblk/FIFO\[2\]\[22\]
*1238 memblk/FIFO_reg\[2\]\[22\]
*1239 memblk/FIFO\[3\]\[22\]
*1240 memblk/FIFO_reg\[3\]\[22\]
*1241 memblk/n168
*1242 memblk/FIFO\[0\]\[21\]
*1243 memblk/FIFO_reg\[0\]\[21\]
*1244 memblk/FIFO\[1\]\[21\]
*1245 memblk/FIFO_reg\[1\]\[21\]
*1246 memblk/FIFO\[2\]\[21\]
*1247 memblk/FIFO_reg\[2\]\[21\]
*1248 memblk/FIFO\[3\]\[21\]
*1249 memblk/FIFO_reg\[3\]\[21\]
*1250 memblk/n167
*1251 memblk/FIFO\[0\]\[20\]
*1252 memblk/FIFO_reg\[0\]\[20\]
*1253 memblk/FIFO\[1\]\[20\]
*1254 memblk/FIFO_reg\[1\]\[20\]
*1255 memblk/FIFO\[2\]\[20\]
*1256 memblk/FIFO_reg\[2\]\[20\]
*1257 memblk/FIFO\[3\]\[20\]
*1258 memblk/FIFO_reg\[3\]\[20\]
*1259 memblk/n166
*1260 memblk/FIFO\[0\]\[19\]
*1261 memblk/FIFO_reg\[0\]\[19\]
*1262 memblk/FIFO\[1\]\[19\]
*1263 memblk/FIFO_reg\[1\]\[19\]
*1264 memblk/FIFO\[2\]\[19\]
*1265 memblk/FIFO_reg\[2\]\[19\]
*1266 memblk/FIFO\[3\]\[19\]
*1267 memblk/FIFO_reg\[3\]\[19\]
*1268 memblk/n165
*1269 memblk/FIFO\[0\]\[18\]
*1270 memblk/FIFO_reg\[0\]\[18\]
*1271 memblk/FIFO\[1\]\[18\]
*1272 memblk/FIFO_reg\[1\]\[18\]
*1273 memblk/FIFO\[2\]\[18\]
*1274 memblk/FIFO_reg\[2\]\[18\]
*1275 memblk/FIFO\[3\]\[18\]
*1276 memblk/FIFO_reg\[3\]\[18\]
*1277 memblk/n164
*1278 memblk/FIFO\[0\]\[17\]
*1279 memblk/FIFO_reg\[0\]\[17\]
*1280 memblk/FIFO\[1\]\[17\]
*1281 memblk/FIFO_reg\[1\]\[17\]
*1282 memblk/FIFO\[2\]\[17\]
*1283 memblk/FIFO_reg\[2\]\[17\]
*1284 memblk/FIFO\[3\]\[17\]
*1285 memblk/FIFO_reg\[3\]\[17\]
*1286 memblk/n163
*1287 memblk/FIFO\[0\]\[16\]
*1288 memblk/FIFO\[1\]\[16\]
*1289 memblk/FIFO_reg\[1\]\[16\]
*1290 memblk/FIFO\[2\]\[16\]
*1291 memblk/FIFO_reg\[2\]\[16\]
*1292 memblk/FIFO\[3\]\[16\]
*1293 memblk/FIFO_reg\[3\]\[16\]
*1294 memblk/n162
*1295 memblk/FIFO\[0\]\[15\]
*1296 memblk/FIFO_reg\[0\]\[15\]
*1297 memblk/FIFO\[1\]\[15\]
*1298 memblk/FIFO_reg\[1\]\[15\]
*1299 memblk/FIFO\[2\]\[15\]
*1300 memblk/FIFO_reg\[2\]\[15\]
*1301 memblk/FIFO\[3\]\[15\]
*1302 memblk/FIFO_reg\[3\]\[15\]
*1303 memblk/n161
*1304 memblk/FIFO\[0\]\[14\]
*1305 memblk/FIFO\[1\]\[14\]
*1306 memblk/FIFO_reg\[1\]\[14\]
*1307 memblk/FIFO\[2\]\[14\]
*1308 memblk/FIFO_reg\[2\]\[14\]
*1309 memblk/FIFO\[3\]\[14\]
*1310 memblk/FIFO_reg\[3\]\[14\]
*1311 memblk/n160
*1312 memblk/FIFO\[0\]\[13\]
*1313 memblk/FIFO_reg\[0\]\[13\]
*1314 memblk/FIFO\[1\]\[13\]
*1315 memblk/FIFO_reg\[1\]\[13\]
*1316 memblk/FIFO\[2\]\[13\]
*1317 memblk/FIFO_reg\[2\]\[13\]
*1318 memblk/FIFO\[3\]\[13\]
*1319 memblk/FIFO_reg\[3\]\[13\]
*1320 memblk/n159
*1321 memblk/FIFO\[0\]\[12\]
*1322 memblk/FIFO_reg\[0\]\[12\]
*1323 memblk/FIFO\[1\]\[12\]
*1324 memblk/FIFO_reg\[1\]\[12\]
*1325 memblk/FIFO\[2\]\[12\]
*1326 memblk/FIFO_reg\[2\]\[12\]
*1327 memblk/FIFO\[3\]\[12\]
*1328 memblk/FIFO_reg\[3\]\[12\]
*1329 memblk/n158
*1330 memblk/FIFO\[0\]\[11\]
*1331 memblk/FIFO_reg\[0\]\[11\]
*1332 memblk/FIFO\[1\]\[11\]
*1333 memblk/FIFO_reg\[1\]\[11\]
*1334 memblk/FIFO\[2\]\[11\]
*1335 memblk/FIFO_reg\[2\]\[11\]
*1336 memblk/FIFO\[3\]\[11\]
*1337 memblk/FIFO_reg\[3\]\[11\]
*1338 memblk/n157
*1339 memblk/FIFO\[0\]\[10\]
*1340 memblk/FIFO_reg\[0\]\[10\]
*1341 memblk/FIFO\[1\]\[10\]
*1342 memblk/FIFO_reg\[1\]\[10\]
*1343 memblk/FIFO\[2\]\[10\]
*1344 memblk/FIFO_reg\[2\]\[10\]
*1345 memblk/FIFO\[3\]\[10\]
*1346 memblk/FIFO_reg\[3\]\[10\]
*1347 memblk/n156
*1348 memblk/FIFO\[0\]\[9\]
*1349 memblk/FIFO_reg\[0\]\[9\]
*1350 memblk/FIFO\[1\]\[9\]
*1351 memblk/FIFO_reg\[1\]\[9\]
*1352 memblk/FIFO\[2\]\[9\]
*1353 memblk/FIFO_reg\[2\]\[9\]
*1354 memblk/FIFO\[3\]\[9\]
*1355 memblk/FIFO_reg\[3\]\[9\]
*1356 memblk/n155
*1357 memblk/FIFO\[0\]\[8\]
*1358 memblk/FIFO_reg\[0\]\[8\]
*1359 memblk/FIFO\[1\]\[8\]
*1360 memblk/FIFO_reg\[1\]\[8\]
*1361 memblk/FIFO\[2\]\[8\]
*1362 memblk/FIFO_reg\[2\]\[8\]
*1363 memblk/FIFO\[3\]\[8\]
*1364 memblk/FIFO_reg\[3\]\[8\]
*1365 memblk/n154
*1366 memblk/FIFO\[0\]\[7\]
*1367 memblk/FIFO_reg\[0\]\[7\]
*1368 memblk/FIFO\[1\]\[7\]
*1369 memblk/FIFO_reg\[1\]\[7\]
*1370 memblk/FIFO\[2\]\[7\]
*1371 memblk/FIFO_reg\[2\]\[7\]
*1372 memblk/FIFO\[3\]\[7\]
*1373 memblk/FIFO_reg\[3\]\[7\]
*1374 memblk/n153
*1375 memblk/FIFO\[0\]\[6\]
*1376 memblk/FIFO_reg\[0\]\[6\]
*1377 memblk/FIFO\[1\]\[6\]
*1378 memblk/FIFO_reg\[1\]\[6\]
*1379 memblk/FIFO\[2\]\[6\]
*1380 memblk/FIFO_reg\[2\]\[6\]
*1381 memblk/FIFO\[3\]\[6\]
*1382 memblk/FIFO_reg\[3\]\[6\]
*1383 memblk/n152
*1384 memblk/FIFO\[0\]\[5\]
*1385 memblk/FIFO_reg\[0\]\[5\]
*1386 memblk/FIFO\[1\]\[5\]
*1387 memblk/FIFO_reg\[1\]\[5\]
*1388 memblk/FIFO\[2\]\[5\]
*1389 memblk/FIFO_reg\[2\]\[5\]
*1390 memblk/FIFO\[3\]\[5\]
*1391 memblk/FIFO_reg\[3\]\[5\]
*1392 memblk/n151
*1393 memblk/FIFO\[0\]\[4\]
*1394 memblk/FIFO\[1\]\[4\]
*1395 memblk/FIFO_reg\[1\]\[4\]
*1396 memblk/FIFO\[2\]\[4\]
*1397 memblk/FIFO_reg\[2\]\[4\]
*1398 memblk/FIFO\[3\]\[4\]
*1399 memblk/FIFO_reg\[3\]\[4\]
*1400 memblk/n150
*1401 memblk/FIFO\[0\]\[3\]
*1402 memblk/FIFO_reg\[0\]\[3\]
*1403 memblk/FIFO\[1\]\[3\]
*1404 memblk/FIFO_reg\[1\]\[3\]
*1405 memblk/FIFO\[2\]\[3\]
*1406 memblk/FIFO_reg\[2\]\[3\]
*1407 memblk/FIFO\[3\]\[3\]
*1408 memblk/FIFO_reg\[3\]\[3\]
*1409 memblk/n149
*1410 memblk/FIFO\[0\]\[2\]
*1411 memblk/FIFO_reg\[0\]\[2\]
*1412 memblk/FIFO\[1\]\[2\]
*1413 memblk/FIFO_reg\[1\]\[2\]
*1414 memblk/FIFO\[2\]\[2\]
*1415 memblk/FIFO_reg\[2\]\[2\]
*1416 memblk/FIFO\[3\]\[2\]
*1417 memblk/FIFO_reg\[3\]\[2\]
*1418 memblk/n6
*1419 memblk/FIFO\[0\]\[1\]
*1420 memblk/FIFO_reg\[0\]\[1\]
*1421 memblk/FIFO\[1\]\[1\]
*1422 memblk/FIFO_reg\[1\]\[1\]
*1423 memblk/FIFO\[2\]\[1\]
*1424 memblk/FIFO_reg\[2\]\[1\]
*1425 memblk/n5
*1426 memblk/FIFO\[0\]\[0\]
*1427 memblk/FIFO_reg\[0\]\[0\]
*1428 memblk/FIFO\[1\]\[0\]
*1429 memblk/FIFO_reg\[1\]\[0\]
*1430 memblk/FIFO\[2\]\[0\]
*1431 memblk/FIFO_reg\[2\]\[0\]
*1432 memblk/FIFO\[3\]\[0\]
*1433 memblk/FIFO_reg\[3\]\[0\]
*1434 memblk/n270
*1435 memblk/n20
*1436 memblk/n269
*1437 memblk/n129
*1438 memblk/U158
*1439 memblk/n211
*1440 memblk/n40
*1441 memblk/n212
*1442 memblk/n52
*1443 memblk/n76
*1444 memblk/n75
*1445 memblk/n77
*1446 memblk/n74
*1447 memblk/n79
*1448 memblk/n110
*1449 memblk/n144
*1450 memblk/n58
*1451 memblk/n57
*1452 memblk/n130
*1453 memblk/n63
*1454 memblk/n108
*1455 memblk/n107
*1456 memblk/n106
*1457 memblk/n104
*1458 memblk/n103
*1459 memblk/n102
*1460 memblk/n101
*1461 memblk/n73
*1462 memblk/n78
*1463 memblk/n72
*1464 memblk/n70
*1465 memblk/n69
*1466 memblk/n56
*1467 memblk/n54
*1468 memblk/n53
*1469 memblk/n137
*1470 memblk/n11
*1471 memblk/n136
*1472 memblk/n128
*1473 memblk/n125
*1474 memblk/n139
*1475 memblk/n135
*1476 memblk/n134
*1477 memblk/n132
*1478 memblk/n127
*1479 memblk/n118
*1480 memblk/n148
*1481 memblk/n147
*1482 memblk/n146
*1483 memblk/n145
*1484 memblk/n142
*1485 memblk/n138
*1486 memblk/n124
*1487 memblk/n123
*1488 memblk/n122
*1489 memblk/n119
*1490 memblk/n100
*1491 memblk/n95
*1492 memblk/n94
*1493 memblk/n93
*1494 memblk/n88
*1495 memblk/n87
*1496 memblk/n141
*1497 memblk/n112
*1498 memblk/n99
*1499 memblk/n96
*1500 memblk/n92
*1501 memblk/n89
*1502 memblk/n143
*1503 memblk/n120
*1504 memblk/n97
*1505 memblk/n90
*1506 memblk/n71
*1507 memblk/n55
*1508 memblk/n113
*1509 memblk/n86
*1510 memblk/n21
*1511 memblk/n98
*1512 memblk/n126
*1513 memblk/n117
*1514 memblk/n116
*1515 memblk/n115
*1516 memblk/n84
*1517 memblk/n83
*1518 memblk/n68
*1519 memblk/n66
*1520 memblk/n65
*1521 memblk/n64
*1522 memblk/n61
*1523 memblk/n59
*1524 memblk/n81
*1525 memblk/n67
*1526 memblk/n62
*1527 memblk/n85
*1528 memblk/n140
*1529 memblk/n44
*1530 memblk/n31
*1531 memblk/n24
*1532 memblk/n36
*1533 memblk/n35
*1534 memblk/n34
*1535 memblk/n33
*1536 memblk/n32
*1537 memblk/n30
*1538 memblk/n29
*1539 memblk/n28
*1540 memblk/n27
*1541 memblk/n26
*1542 memblk/n25
*1543 memblk/n23
*1544 memblk/n47
*1545 memblk/n39
*1546 memblk/n41
*1547 memblk/n37
*1548 memblk/n42
*1549 memblk/n38
*1550 memblk/n46
*1551 memblk/n45
*1552 memblk/n9
*1553 memblk/n105
*1554 memblk/n91
*1555 memblk/n60
*1556 memblk/n43
*1557 memblk/n109
*1558 memblk/n111
*1559 F_LastN_reg
*1560 F_FirstN_reg
*1561 F_FullN_reg
*1562 F_SLastN_reg
*1563 F_EmptyN_reg
*1564 U235
*1565 U148
*1566 U56
*1567 U2
*1568 U1
*1569 U357
*1570 U316
*1571 U310
*1572 U233
*1573 U149
*1574 U144
*1575 n22
*1576 U8
*1577 n36
*1578 U246
*1579 U160
*1580 n37
*1581 U245
*1582 U159