*SPEF "1481-1998"
*DESIGN "s1238"
*DATE "Fri Mar  8 23:59:55 2019"
*VENDOR "Synopsys, Inc."
*PROGRAM "icc_shell"
*VERSION "L-2016.03-SP5-1"
*DESIGN_FLOW "PIN_CAP NONE"
*DIVIDER /
*DELIMITER :
*BUS_DELIMITER [ ]
*T_UNIT 1 NS
*C_UNIT 1 FF
*R_UNIT 1 OHM
*L_UNIT 1 HENRY

*NAME_MAP
*1 G11
*2 G10
*3 G1
*4 G0
*5 CK
*6 VDD
*7 GND
*8 VDDA
*9 G7
*10 G6
*11 G5
*12 G4
*13 G3
*14 G2
*15 G13
*16 G12
*17 G539
*18 G537
*19 G535
*20 G532
*21 G530
*22 G45
*23 G9
*24 G8
*25 G552
*26 G551
*27 G550
*28 G549
*29 G548
*30 G547
*31 G546
*32 G542
*33 VSS
*34 U610
*35 n557
*36 U537
*37 U536
*38 n556
*39 U437
*40 n555
*41 U609
*42 n554
*43 U608
*44 n565
*45 U440
*46 DFF_12/q_reg
*47 n553
*48 U456
*49 n552
*50 U607
*51 n551
*52 U402
*53 U330
*54 n549
*55 U605
*56 n559
*57 U566
*58 DFF_5/q_reg
*59 n548
*60 U530
*61 U423
*62 U348
*63 U338
*64 n547
*65 U604
*66 U499
*67 U480
*68 U405
*69 U313
*70 n263
*71 DFF_6/q_reg
*72 n546
*73 U489
*74 U487
*75 n545
*76 U603
*77 U602
*78 n264
*79 DFF_2/q_reg
*80 U595
*81 U561
*82 U465
*83 U406
*84 U12
*85 n267
*86 U601
*87 DFF_3/q_reg
*88 n543
*89 U316
*90 n542
*91 U547
*92 U546
*93 U432
*94 n541
*95 U591
*96 U570
*97 U569
*98 n268
*99 U600
*100 DFF_8/q_reg
*101 n536
*102 U534
*103 U533
*104 n535
*105 U524
*106 U522
*107 n533
*108 U599
*109 U504
*110 U503
*111 n534
*112 U502
*113 n532
*114 U598
*115 G516
*116 DFF_14/q_reg
*117 n529
*118 U596
*119 n355
*120 U586
*121 U476
*122 U320
*123 U312
*124 n528
*125 U597
*126 n530
*127 U584
*128 U429
*129 U407
*130 U377
*131 U309
*132 U14
*133 n527
*134 U576
*135 U318
*136 n526
*137 U336
*138 U323
*139 n525
*140 U335
*141 n524
*142 U521
*143 U435
*144 G513
*145 DFF_11/q_reg
*146 n521
*147 U594
*148 U593
*149 n522
*150 U430
*151 U308
*152 G509
*153 DFF_7/q_reg
*154 n520
*155 U475
*156 U474
*157 U315
*158 n519
*159 U592
*160 U587
*161 U513
*162 U305
*163 n313
*164 U512
*165 U431
*166 U294
*167 G507
*168 G506
*169 DFF_4/q_reg
*170 n517
*171 U590
*172 n518
*173 U589
*174 G32
*175 U484
*176 n515
*177 U509
*178 U290
*179 U469
*180 U433
*181 U10
*182 U578
*183 U567
*184 U541
*185 U528
*186 U527
*187 U515
*188 n514
*189 U303
*190 n511
*191 U588
*192 U574
*193 U573
*194 n512
*195 U415
*196 n509
*197 n510
*198 U582
*199 G40
*200 n508
*201 U585
*202 n538
*203 U486
*204 U344
*205 n507
*206 U583
*207 n506
*208 n505
*209 U506
*210 U505
*211 U545
*212 U539
*213 U571
*214 U322
*215 U540
*216 U500
*217 U472
*218 U409
*219 U532
*220 U11
*221 n273
*222 U343
*223 U324
*224 n504
*225 n503
*226 U508
*227 U507
*228 n501
*229 U326
*230 n502
*231 U414
*232 U293
*233 U16
*234 n497
*235 U581
*236 U577
*237 n495
*238 U580
*239 n496
*240 U411
*241 n498
*242 n494
*243 U428
*244 G39
*245 DFF_10/q_reg
*246 n493
*247 U579
*248 n490
*249 n492
*250 U516
*251 U360
*252 n488
*253 U568
*254 U514
*255 n487
*256 n477
*257 U511
*258 n485
*259 n482
*260 U575
*261 U572
*262 n480
*263 n481
*264 U418
*265 U333
*266 n483
*267 U412
*268 U544
*269 U6
*270 n478
*271 n479
*272 n475
*273 U413
*274 n474
*275 n476
*276 U334
*277 U501
*278 U341
*279 U314
*280 U394
*281 U395
*282 U417
*283 U396
*284 U4
*285 n473
*286 U434
*287 n471
*288 U565
*289 n469
*290 U562
*291 U462
*292 U461
*293 U444
*294 U345
*295 n472
*296 U447
*297 n470
*298 U555
*299 U449
*300 U383
*301 U342
*302 n468
*303 U467
*304 U466
*305 U439
*306 U438
*307 U564
*308 U436
*309 U478
*310 U443
*311 U442
*312 U441
*313 U2
*314 n467
*315 U560
*316 n292
*317 U404
*318 U535
*319 U542
*320 U17
*321 n466
*322 U563
*323 n465
*324 n464
*325 n463
*326 n461
*327 U483
*328 n459
*329 U325
*330 n460
*331 U9
*332 U529
*333 U519
*334 U459
*335 U458
*336 U446
*337 n457
*338 U347
*339 U319
*340 n458
*341 G34
*342 U559
*343 n454
*344 U387
*345 U510
*346 U491
*347 U477
*348 U371
*349 n455
*350 U301
*351 n456
*352 U425
*353 n452
*354 U558
*355 n449
*356 U471
*357 n448
*358 U557
*359 U485
*360 n453
*361 n444
*362 U556
*363 U554
*364 n442
*365 n443
*366 n445
*367 U553
*368 n441
*369 U498
*370 U298
*371 n438
*372 n439
*373 U495
*374 U332
*375 n435
*376 U297
*377 n436
*378 U549
*379 U548
*380 n437
*381 U551
*382 n431
*383 U552
*384 U427
*385 G37
*386 U473
*387 n433
*388 n430
*389 n499
*390 U329
*391 n428
*392 U550
*393 U455
*394 n426
*395 n427
*396 n429
*397 n425
*398 U311
*399 n424
*400 U381
*401 U299
*402 n416
*403 n414
*404 n418
*405 n419
*406 n413
*407 U445
*408 n411
*409 U543
*410 n410
*411 n409
*412 n408
*413 n407
*414 n406
*415 U538
*416 n484
*417 n561
*418 n405
*419 n404
*420 U1
*421 U463
*422 n462
*423 G519
*424 DFF_17/q_reg
*425 n402
*426 U531
*427 n403
*428 n401
*429 n400
*430 n399
*431 G30
*432 DFF_1/q_reg
*433 n398
*434 n537
*435 U526
*436 n397
*437 U525
*438 G517
*439 DFF_15/q_reg
*440 n396
*441 U523
*442 n395
*443 U400
*444 n394
*445 U310
*446 G515
*447 DFF_13/q_reg
*448 n391
*449 U520
*450 n390
*451 n389
*452 n388
*453 n385
*454 U518
*455 U454
*456 n386
*457 n383
*458 U517
*459 n381
*460 n382
*461 G29
*462 DFF_0/q_reg
*463 n447
*464 U419
*465 n539
*466 n380
*467 U390
*468 n446
*469 n379
*470 n378
*471 n377
*472 n376
*473 U8
*474 U482
*475 U410
*476 U385
*477 U5
*478 n375
*479 n372
*480 U291
*481 n421
*482 U497
*483 U450
*484 n368
*485 n373
*486 U496
*487 U401
*488 n367
*489 n366
*490 n365
*491 U317
*492 n432
*493 U494
*494 U493
*495 n359
*496 G38
*497 DFF_9/q_reg
*498 n358
*499 n387
*500 U492
*501 U327
*502 n349
*503 U490
*504 U398
*505 n350
*506 n351
*507 U378
*508 n393
*509 U488
*510 U464
*511 U13
*512 n347
*513 U382
*514 U302
*515 n346
*516 n345
*517 G35
*518 n344
*519 n343
*520 U481
*521 U397
*522 G36
*523 n348
*524 U306
*525 n500
*526 U479
*527 U392
*528 n450
*529 U416
*530 U304
*531 n336
*532 n337
*533 n369
*534 U307
*535 n362
*536 U321
*537 G511
*538 n339
*539 n333
*540 U421
*541 n332
*542 U453
*543 n328
*544 U470
*545 U452
*546 n327
*547 G46
*548 n360
*549 U468
*550 U331
*551 n558
*552 n324
*553 U460
*554 n325
*555 U424
*556 n323
*557 n322
*558 G31
*559 n321
*560 n334
*561 U337
*562 n1
*563 U339
*564 n319
*565 U448
*566 n303
*567 n331
*568 U420
*569 n330
*570 n329
*571 U422
*572 n422
*573 U451
*574 U386
*575 n440
*576 n423
*577 n420
*578 n540
*579 U328
*580 G42
*581 n412
*582 n341
*583 n326
*584 n523
*585 n486
*586 n361
*587 n301
*588 U15
*589 n384
*590 n357
*591 U408
*592 n310
*593 n354
*594 U426
*595 n309
*596 n307
*597 U3
*598 n306
*599 n304
*600 n266
*601 n338
*602 G502
*603 n352
*604 n305
*605 n356
*606 n363
*607 n374
*608 n270
*609 n364
*610 n434
*611 n289
*612 n288
*613 n287
*614 U391
*615 n286
*616 U393
*617 n285
*618 n314
*619 n284
*620 n283
*621 U388
*622 n282
*623 n281
*624 U389
*625 n280
*626 n451
*627 n278
*628 n275
*629 U384
*630 n274
*631 n279
*632 n261
*633 U380
*634 DFF_16/q_reg
*635 n370
*636 n371
*637 n353
*638 U7
*639 G33
*640 n320
*641 n272
*642 G44
*643 G43
*644 n2
*645 n3
*646 n4
*647 n5
*648 n6
*649 n7
*650 n8
*651 n9
*652 n10
*653 n11
*654 n12
*655 n13
*656 n14
*657 n15
*658 n16
*659 n17

*PORTS
*1 I *L 0.0 *S 0.0 0.0
*2 I *L 0.0 *S 0.0 0.0
*3 I *L 0.0 *S 0.0 0.0
*4 I *L 0.0 *S 0.0 0.0
*5 I *L 0.0 *S 0.0 0.0
*6 I *L 0.0 *S 0.0 0.0
*7 I *L 0.0 *S 0.0 0.0
*8 I *L 0.0 *S 0.0 0.0
*9 I *L 0.0 *S 0.0 0.0
*10 I *L 0.0 *S 0.0 0.0
*11 I *L 0.0 *S 0.0 0.0
*12 I *L 0.0 *S 0.0 0.0
*13 I *L 0.0 *S 0.0 0.0
*14 I *L 0.0 *S 0.0 0.0
*15 I *L 0.0 *S 0.0 0.0
*16 I *L 0.0 *S 0.0 0.0
*17 O *L 300.0 *S 0.0 0.0
*18 O *L 300.0 *S 0.0 0.0
*19 O *L 300.0 *S 0.0 0.0
*20 O *L 300.0 *S 0.0 0.0
*21 O *L 300.0 *S 0.0 0.0
*22 O *L 300.0 *S 0.0 0.0
*23 I *L 0.0 *S 0.0 0.0
*24 I *L 0.0 *S 0.0 0.0
*25 O *L 300.0 *S 0.0 0.0
*26 O *L 300.0 *S 0.0 0.0
*27 O *L 300.0 *S 0.0 0.0
*28 O *L 300.0 *S 0.0 0.0
*29 O *L 300.0 *S 0.0 0.0
*30 O *L 300.0 *S 0.0 0.0
*31 O *L 300.0 *S 0.0 0.0
*32 O *L 300.0 *S 0.0 0.0
*33 I *L 0.0 *S 0.0 0.0

*D_NET *32 1.556237

*CONN
*I *34:Y O *L 0.0 *D NAND3X0_RVT *C 13.208 37.094
*P *32 O *C 0.028 43.304
*N *32:3 *C 12.752 43.304
*N *32:4 *C 12.752 43.304
*N *32:5 *C 12.752 37.528
*N *32:6 *C 12.752 37.528
*N *32:7 *C 12.752 37.574

*CAP
1 *34:Y 0.02779131
2 *32 0.4797333
3 *32:3 0.4797333
4 *32:4 0.2082428
5 *32:5 0.01437265
6 *32:6 0.02779131
7 *32:7 0.2226155
8 *32:7 *341:16 0.09595697

*RES
1 *32:3 *32:4 0.5
2 *32:5 *32:6 1.0
3 *32:6 *34:Y 0.3263637
4 *32:5 *32:7 0.02738096
5 *32:7 *32:4 10.13453
6 *32 *32:3 22.62208

*END

*D_NET *35 0.8438651

*CONN
*I *34:A1 I *L 503.5117 *C 13.231 37.68
*I *36:A2 I *L 483.7213 *C 14.88 39.187
*I *37:Y O *L 0.0 *D OR3X1_RVT *C 14.27 34.792
*N *35:4 *C 13.968 37.832
*N *35:5 *C 13.968 37.832
*N *35:6 *C 15.184 37.832
*N *35:7 *C 15.184 37.832
*N *35:8 *C 15.184 39.2
*N *35:9 *C 15.184 39.2
*N *35:10 *C 13.231 37.68
*N *35:11 *C 13.968 34.944
*N *35:12 *C 13.968 34.944
*N *35:13 *C 14.029 34.944
*N *35:14 *C 14.271 34.941
*N *35:15 *C 13.277 37.68
*N *35:16 *C 13.968 37.68
*N *35:17 *C 13.968 34.99
*N *35:18 *C 15.184 39.154

*CAP
1 *34:A1 0.0
2 *36:A2 0.05494601
3 *37:Y 0.01255881
4 *35:4 0.03304154
5 *35:5 0.01080083
6 *35:6 0.03304154
7 *35:7 0.05866115
8 *35:8 0.00933117
9 *35:9 0.05494601
10 *35:10 0.01212394
11 *35:11 0.01052922
12 *35:12 0.01289016
13 *35:13 0.0283659
14 *35:14 0.02803455
15 *35:15 0.05097029
16 *35:16 0.1132049
17 *35:17 0.07408689
18 *35:18 0.06799232
19 *35:16 *38:6 0.02098029
20 *35:16 *38:7 0.02098029
21 *35:6 *44:8 0.02559131
22 *35:4 *44:8 0.02559131
23 *35:16 *422:9 0.04259837
24 *35:17 *422:11 0.04259837

*RES
1 *35:4 *35:5 0.5
2 *35:6 *35:7 0.5
3 *35:8 *35:9 1.0
4 *35:10 *34:A1 1.0
5 *35:11 *35:12 1.0
6 *35:12 *35:13 0.03651885
7 *35:13 *35:14 0.4836364
8 *37:Y *35:14 0.214
9 *36:A2 *35:9 0.2939412
10 *35:10 *35:15 0.02738095
11 *35:15 *35:16 1.147983
12 *35:11 *35:17 0.02738095
13 *35:17 *35:16 4.705647
14 *35:16 *35:5 0.2067477
15 *35:18 *35:8 0.02738095
16 *35:7 *35:18 2.26846
17 *35:4 *35:6 2.08344

*END

*D_NET *38 0.1728776

*CONN
*I *34:A2 I *L 474.3959 *C 13.359 37.528
*I *39:Y O *L 0.0 *D AO21X1_RVT *C 13.664 36.295
*N *38:3 *C 13.359 37.528
*N *38:4 *C 13.664 36.295
*N *38:5 *C 13.405 37.528
*N *38:6 *C 13.664 37.528
*N *38:7 *C 13.664 36.341

*CAP
1 *34:A2 0.0
2 *39:Y 0.0
3 *38:3 0.01184588
4 *38:4 0.009852353
5 *38:5 0.02835684
6 *38:6 0.0437603
7 *38:7 0.03710169
8 *38:6 *35:16 0.02098029
9 *38:7 *35:16 0.02098029

*RES
1 *38:3 *34:A2 1.0
2 *38:4 *39:Y 1.0
3 *38:3 *38:5 0.02738095
4 *38:5 *38:6 0.3928764
5 *38:4 *38:7 0.02738095
6 *38:7 *38:6 2.024225

*END

*D_NET *40 0.2840701

*CONN
*I *34:A3 I *L 457.9212 *C 13.664 37.528
*I *41:Y O *L 0.0 *D NAND3X0_RVT *C 14.576 36.441
*N *40:3 *C 14.12 37.528
*N *40:4 *C 14.12 36.16
*N *40:5 *C 14.272 36.16
*N *40:6 *C 14.272 36.008

*CAP
1 *34:A3 0.03772004
2 *41:Y 0.01305456
3 *40:3 0.1118693
4 *40:4 0.08743628
5 *40:5 0.01711122
6 *40:6 0.01687875

*RES
1 *34:A3 *40:3 0.823628
2 *40:4 *40:3 2.639526
3 *40:4 *40:5 0.2287525
4 *40:6 *41:Y 0.1609091
5 *40:6 *40:5 0.1794099

*END

*D_NET *42 0.3021859

*CONN
*I *41:A3 I *L 457.9212 *C 15.032 36.022
*I *43:Y O *L 0.0 *D NAND3X0_RVT *C 15.64 37.094
*N *42:3 *C 15.336 36.008
*N *42:4 *C 15.336 36.008
*N *42:5 *C 15.336 37.376
*N *42:6 *C 15.336 37.376
*N *42:7 *C 15.351 37.528
*N *42:8 *C 15.336 36.054
*N *42:9 *C 15.336 37.33

*CAP
1 *41:A3 0.04917433
2 *43:Y 0.006406105
3 *42:3 0.01122187
4 *42:4 0.04917433
5 *42:5 0.01122187
6 *42:6 0.01196164
7 *42:7 0.01836775
8 *42:8 0.05850504
9 *42:9 0.05850504
10 *42:9 *101:20 0.01382395
11 *42:9 *101:13 0.01382395

*RES
1 *42:3 *42:4 1.0
2 *42:5 *42:6 1.0
3 *41:A3 *42:4 0.2847059
4 *42:6 *42:7 0.211375
5 *42:7 *43:Y 0.1134021
6 *42:3 *42:8 0.02738095
7 *42:9 *42:5 0.02738095
8 *42:8 *42:9 2.184817

*END

*D_NET *44 0.6333716

*CONN
*I *43:A1 I *L 503.5117 *C 15.629 37.68
*I *45:Y O *L 0.0 *D AO21X1_RVT *C 11.992 38.152
*I *46:D I *L 480.9797 *C 12.296 39.352
*N *44:4 *C 12.296 39.352
*N *44:5 *C 15.629 37.68
*N *44:6 *C 12.296 38.136
*N *44:7 *C 12.296 38.136
*N *44:8 *C 15.629 38.136
*N *44:9 *C 15.629 38.136
*N *44:10 *C 12.144 37.224
*N *44:11 *C 12.144 37.224
*N *44:12 *C 12.068 37.224
*N *44:13 *C 12.144 37.27
*N *44:14 *C 12.144 37.528
*N *44:15 *C 12.296 37.528
*N *44:16 *C 12.296 39.306

*CAP
1 *43:A1 0.0
2 *45:Y 0.006109488
3 *46:D 0.0
4 *44:4 0.0105604
5 *44:5 0.02463944
6 *44:6 0.1113499
7 *44:7 0.07614057
8 *44:8 0.1113499
9 *44:9 0.02463944
10 *44:10 0.01219236
11 *44:11 0.02683347
12 *44:12 0.03294296
13 *44:13 0.02828545
14 *44:14 0.02326889
15 *44:15 0.03188713
16 *44:16 0.06198966
17 *44:8 *35:6 0.02559131
18 *44:8 *35:4 0.02559131

*RES
1 *44:4 *46:D 1.0
2 *44:5 *43:A1 1.0
3 *44:6 *44:7 0.5
4 *44:8 *44:9 0.5
5 *44:10 *44:11 1.0
6 *45:Y *44:12 0.1447369
7 *44:12 *44:11 0.03226891
8 *44:10 *44:13 0.02738096
9 *44:13 *44:14 0.3911725
10 *44:14 *44:15 0.1983517
11 *44:16 *44:4 0.02738095
12 *44:15 *44:7 0.990117
13 *44:7 *44:16 1.993854
14 *44:5 *44:9 0.7265935
15 *44:6 *44:8 5.856529

*END

*D_NET *47 0.4651588

*CONN
*I *43:A2 I *L 474.3959 *C 15.792 37.528
*I *48:Y O *L 0.0 *D AO221X1_RVT *C 17.312 35.395
*N *47:3 *C 17.768 36.312
*N *47:4 *C 17.768 36.312
*N *47:5 *C 17.768 37.528
*N *47:6 *C 17.768 37.528
*N *47:7 *C 15.488 37.528
*N *47:8 *C 15.488 37.528
*N *47:9 *C 15.792 37.528
*N *47:10 *C 15.719 37.52
*N *47:11 *C 17.768 36.358

*CAP
1 *43:A2 0.0
2 *48:Y 0.04652608
3 *47:3 0.009876739
4 *47:4 0.04652608
5 *47:5 0.07277758
6 *47:6 0.03578268
7 *47:7 0.07277758
8 *47:8 0.01923726
9 *47:9 0.00554159
10 *47:10 0.02477884
11 *47:11 0.04565942
12 *47:5 *23:50 0.02596289
13 *47:7 *23:50 0.02596289
14 *47:6 *431:28 0.01687459
15 *47:11 *431:28 0.01687459

*RES
1 *47:3 *47:4 1.0
2 *47:5 *47:6 0.5
3 *47:7 *47:8 0.5
4 *47:9 *43:A2 1.0
5 *48:Y *47:4 0.4882354
6 *47:8 *47:10 0.3011703
7 *47:10 *47:9 0.057
8 *47:3 *47:11 0.02738096
9 *47:11 *47:6 1.999973
10 *47:7 *47:5 3.978216

*END

*D_NET *49 0.1826342

*CONN
*I *43:A3 I *L 457.9212 *C 16.096 37.528
*I *50:Y O *L 0.0 *D NAND2X0_RVT *C 17.92 38.076

*CAP
1 *43:A3 0.09131711
2 *50:Y 0.09131711

*RES
1 *43:A3 *50:Y 3.538

*END

*D_NET *51 1.310417

*CONN
*I *50:A2 I *L 405.9669 *C 18.224 37.68
*I *52:A3 I *L 497.9178 *C 28.56 36.018
*I *53:Y O *L 0.0 *D INVX1_RVT *C 20.352 37.187
*N *51:4 *C 20.96 37.832
*N *51:5 *C 20.96 37.832
*N *51:6 *C 20.96 37.832
*N *51:7 *C 18.224 37.68
*N *51:8 *C 18.224 37.832
*N *51:9 *C 18.224 37.832
*N *51:10 *C 28.408 37.832
*N *51:11 *C 28.408 37.832
*N *51:12 *C 28.864 36.008
*N *51:13 *C 28.864 36.008
*N *51:14 *C 20.899 37.805
*N *51:15 *C 28.828 36.031
*N *51:16 *C 28.408 37.528
*N *51:17 *C 28.864 37.528
*N *51:18 *C 28.864 36.054

*CAP
1 *50:A2 0.01159403
2 *52:A3 0.03107011
3 *53:Y 0.01108369
4 *51:4 0.01851275
5 *51:5 0.01410675
6 *51:6 0.2060064
7 *51:7 0.02912625
8 *51:8 0.02654123
9 *51:9 0.01753222
10 *51:10 0.1609524
11 *51:11 0.01594194
12 *51:12 0.0106206
13 *51:13 0.005687831
14 *51:14 0.02519044
15 *51:15 0.03675794
16 *51:16 0.04011431
17 *51:17 0.0891876
18 *51:18 0.07563583
19 *51:10 *24:26 0.1540882
20 *51:6 *24:39 0.1540882
21 *51:6 *499:13 0.04125391
22 *51:8 *499:15 0.04125391
23 *51:6 *575:9 0.09407062

*RES
1 *51:4 *51:5 1.0
2 *51:6 *51:4 0.5
3 *51:7 *50:A2 1.0
4 *51:8 *51:9 0.5
5 *51:10 *51:11 0.5
6 *51:12 *51:13 1.0
7 *53:Y *51:14 0.3625
8 *51:14 *51:5 0.04750001
9 *52:A3 *51:15 0.482
10 *51:15 *51:13 0.04705608
11 *51:7 *51:9 0.2068502
12 *51:16 *51:17 0.7340041
13 *51:16 *51:11 0.4643043
14 *51:12 *51:18 0.02738095
15 *51:18 *51:17 2.535866
16 *51:8 *51:6 4.789613
17 *51:6 *51:10 13.20147

*END

*D_NET *54 1.008224

*CONN
*I *55:Y O *L 0.0 *D OR2X1_RVT *C 13.497 25.516
*I *39:A3 I *L 479.5879 *C 13.208 35.248
*N *54:3 *C 13.208 35.248
*N *54:4 *C 13.512 25.216
*N *54:5 *C 13.512 25.216
*N *54:6 *C 13.489 25.238
*N *54:7 *C 13.208 35.202
*N *54:8 *C 13.208 33.424
*N *54:9 *C 13.36 33.424
*N *54:10 *C 13.36 30.688
*N *54:11 *C 13.512 30.688
*N *54:12 *C 13.512 25.262

*CAP
1 *55:Y 0.02708158
2 *39:A3 0.0
3 *54:3 0.009791508
4 *54:4 0.009939011
5 *54:5 0.004625152
6 *54:6 0.03170673
7 *54:7 0.07929942
8 *54:8 0.07785952
9 *54:9 0.05937341
10 *54:10 0.0610342
11 *54:11 0.2212406
12 *54:12 0.2211673
13 *54:12 *289:27 0.06214323
14 *54:10 *552:13 0.06961977
15 *54:9 *650:93 0.0366714
16 *54:10 *650:65 0.0366714

*RES
1 *54:3 *39:A3 1.0
2 *54:4 *54:5 1.0
3 *54:6 *54:5 0.0475
4 *54:6 *55:Y 0.3265625
5 *54:7 *54:3 0.02738096
6 *54:8 *54:7 3.079511
7 *54:8 *54:9 0.1983517
8 *54:10 *54:11 0.2138529
9 *54:10 *54:9 4.785714
10 *54:4 *54:12 0.02738096
11 *54:12 *54:11 9.590326

*END

*D_NET *56 0.9160694

*CONN
*I *55:A2 I *L 610.4156 *C 13.056 25.824
*I *57:A5 I *L 493.3372 *C 12.296 24.297
*I *58:QN O *L 0.0 *D DFFX1_RVT *C 8.977 20.504
*N *56:4 *C 12.296 24.297
*N *56:5 *C 12.296 20.352
*N *56:6 *C 12.296 20.352
*N *56:7 *C 13.056 25.824
*N *56:8 *C 8.952 20.352
*N *56:9 *C 12.286 20.352
*N *56:10 *C 12.296 20.398
*N *56:11 *C 12.296 24.251
*N *56:12 *C 12.296 24.343
*N *56:13 *C 12.296 25.064
*N *56:14 *C 13.056 25.064
*N *56:15 *C 13.056 25.778

*CAP
1 *55:A2 0.0
2 *57:A5 0.0
3 *58:QN 0.01709652
4 *56:4 0.01186585
5 *56:5 0.009271427
6 *56:6 0.005825926
7 *56:7 0.01317122
8 *56:8 0.1585258
9 *56:9 0.1472552
10 *56:10 0.1579712
11 *56:11 0.1513174
12 *56:12 0.04391927
13 *56:13 0.07255498
14 *56:14 0.07600367
15 *56:15 0.05129093

*RES
1 *56:4 *57:A5 1.0
2 *56:5 *56:6 1.0
3 *56:7 *55:A2 1.0
4 *56:8 *58:QN 0.2793
5 *56:8 *56:9 6.56815
6 *56:9 *56:6 0.002564103
7 *56:5 *56:10 0.02738095
8 *56:11 *56:4 0.05476191
9 *56:4 *56:12 0.05476191
10 *56:10 *56:11 6.782516
11 *56:12 *56:13 1.201049
12 *56:13 *56:14 1.264006
13 *56:15 *56:7 0.02738095
14 *56:14 *56:15 1.178774

*END

*D_NET *59 1.431448

*CONN
*I *55:A1 I *L 549.6215 *C 12.828 25.813
*I *60:A2 I *L 474.3959 *C 20.226 25.976
*I *61:A3 I *L 507.8622 *C 20.884 27.788
*I *62:Y O *L 0.0 *D OR2X1_RVT *C 12.904 27.203
*I *63:A I *L 688.1503 *C 12.296 27.648
*N *59:6 *C 20.226 25.976
*N *59:7 *C 20.352 27.952
*N *59:8 *C 20.352 27.952
*N *59:9 *C 12.752 27.192
*N *59:10 *C 12.752 27.192
*N *59:11 *C 20.352 27.192
*N *59:12 *C 20.352 27.192
*N *59:13 *C 12.904 26.584
*N *59:14 *C 12.904 26.584
*N *59:15 *C 12.296 27.648
*N *59:16 *C 12.324 27.673
*N *59:17 *C 12.315 27.648
*N *59:18 *C 12.384 27.685
*N *59:19 *C 12.448 27.648
*N *59:20 *C 12.448 27.925
*N *59:21 *C 12.904 25.991
*N *59:22 *C 12.343 27.648
*N *59:23 *C 12.752 27.648
*N *59:24 *C 12.752 26.584
*N *59:25 *C 20.286 25.976
*N *59:26 *C 20.352 25.977
*N *59:27 *C 20.352 27.906

*CAP
1 *55:A1 0.007040179
2 *60:A2 0.0
3 *61:A3 0.04664807
4 *62:Y 0.01549423
5 *63:A 0.01484637
6 *59:6 0.01189008
7 *59:7 0.01208613
8 *59:8 0.04664807
9 *59:9 0.2236226
10 *59:10 0.04386174
11 *59:11 0.2236226
12 *59:12 0.09568308
13 *59:13 0.01465028
14 *59:14 0.02757727
15 *59:15 0.005534268
16 *59:16 0.03314595
17 *59:17 0.01457979
18 *59:18 0.01413745
19 *59:19 0.01890386
20 *59:20 0.02862263
21 *59:21 0.03461745
22 *59:22 0.02993998
23 *59:23 0.04316727
24 *59:24 0.03975046
25 *59:25 0.01728007
26 *59:26 0.06495625
27 *59:27 0.04820296
28 *59:11 *289:7 0.02853572
29 *59:9 *289:16 0.02853572
30 *59:11 *289:16 0.03363389
31 *59:9 *289:18 0.03363389
32 *59:11 *654:53 0.06529984
33 *59:9 *654:49 0.06529984

*RES
1 *59:6 *60:A2 1.0
2 *59:7 *59:8 1.0
3 *59:9 *59:10 0.25
4 *59:11 *59:12 0.25
5 *59:13 *59:14 1.0
6 *59:15 *63:A 1.0
7 *59:17 *59:16 0.1912338
8 *59:16 *63:A 0.102972
9 *59:16 *59:18 0.1915323
10 *59:17 *59:18 0.09999999
11 *59:18 *59:19 0.1368
12 *59:19 *59:20 0.4703143
13 *59:20 *62:Y 0.4175439
14 *55:A1 *59:21 0.12
15 *59:21 *59:14 1.08123
16 *59:8 *61:A3 0.6858824
17 *59:15 *59:22 0.01424243
18 *59:22 *59:23 0.6553113
19 *59:24 *59:13 0.09097686
20 *59:24 *59:10 0.9858785
21 *59:10 *59:23 0.7200708
22 *59:6 *59:25 0.03448276
23 *59:25 *59:26 0.1768966
24 *59:27 *59:7 0.02738095
25 *59:26 *59:12 2.071817
26 *59:12 *59:27 1.182273
27 *59:9 *59:11 13.47071

*END

*D_NET *64 1.874716

*CONN
*I *65:A2 I *L 450.7719 *C 27.063 34.032
*I *66:A2 I *L 405.9669 *C 25.978 39.24
*I *67:A2 I *L 405.9669 *C 32.514 30.952
*I *68:Y O *L 0.0 *D AO21X1_RVT *C 25.976 35.384
*I *69:A I *L 518.4735 *C 31.75 34.323
*N *64:6 *C 32.208 30.992
*N *64:7 *C 32.208 30.992
*N *64:8 *C 31.904 34.032
*N *64:9 *C 31.904 34.032
*N *64:10 *C 26.128 36.337
*N *64:11 *C 26.128 36.337
*N *64:12 *C 31.904 34.184
*N *64:13 *C 31.904 34.184
*N *64:14 *C 26.736 34.184
*N *64:15 *C 26.736 34.184
*N *64:16 *C 26.736 36.616
*N *64:17 *C 26.736 36.616
*N *64:18 *C 25.672 36.616
*N *64:19 *C 25.672 36.616
*N *64:20 *C 25.672 38.896
*N *64:21 *C 25.672 38.896
*N *64:22 *C 26.736 33.728
*N *64:23 *C 26.736 33.728
*N *64:24 *C 25.824 38.896
*N *64:25 *C 25.824 39.164
*N *64:26 *C 25.938 39.164
*N *64:27 *C 26.736 34.004
*N *64:28 *C 31.904 34.326
*N *64:29 *C 32.269 30.969
*N *64:30 *C 32.514 30.994
*N *64:31 *C 25.672 38.85
*N *64:32 *C 26.128 36.383
*N *64:33 *C 26.128 36.616
*N *64:34 *C 26.736 33.774
*N *64:35 *C 31.904 33.986
*N *64:36 *C 31.904 32.816
*N *64:37 *C 32.208 32.816
*N *64:38 *C 32.208 31.038

*CAP
1 *65:A2 0.01276693
2 *66:A2 0.01086687
3 *67:A2 0.02771983
4 *68:Y 0.009585179
5 *69:A 0.0112122
6 *64:6 0.01114821
7 *64:7 0.01460108
8 *64:8 0.0165211
9 *64:9 0.01257281
10 *64:10 0.01140324
11 *64:11 0.009585179
12 *64:12 0.147426
13 *64:13 0.01381109
14 *64:14 0.147426
15 *64:15 0.08318952
16 *64:16 0.01419158
17 *64:17 0.08776059
18 *64:18 0.01419158
19 *64:19 0.06123249
20 *64:20 0.01359358
21 *64:21 0.01228615
22 *64:22 0.0127536
23 *64:23 0.01548948
24 *64:24 0.02463429
25 *64:25 0.01840979
26 *64:26 0.004805221
27 *64:27 0.02825641
28 *64:28 0.02378501
29 *64:29 0.03584983
30 *64:30 0.006471074
31 *64:31 0.07482607
32 *64:32 0.02521053
33 *64:33 0.04190664
34 *64:34 0.03628188
35 *64:35 0.05190136
36 *64:36 0.06430405
37 *64:37 0.09033906
38 *64:38 0.08637457
39 *64:12 *70:6 0.07033096
40 *64:14 *70:5 0.07033096
41 *64:16 *372:10 0.03700496
42 *64:18 *372:10 0.03700496
43 *64:31 *21:5 0.07789391
44 *64:19 *21:5 0.07789391
45 *64:17 *488:9 0.05978304
46 *64:15 *488:11 0.05978304

*RES
1 *64:6 *64:7 1.0
2 *64:8 *64:9 1.0
3 *64:10 *64:11 1.0
4 *64:12 *64:13 0.5
5 *64:14 *64:15 0.5
6 *64:16 *64:17 0.5
7 *64:18 *64:19 0.5
8 *64:20 *64:21 1.0
9 *64:22 *64:23 1.0
10 *64:21 *64:24 0.2012785
11 *64:24 *64:25 0.450377
12 *64:25 *66:A2 0.178
13 *66:A2 *64:26 0.06800001
14 *68:Y *64:11 0.2783333
15 *64:23 *64:27 0.4649338
16 *64:27 *65:A2 0.4388889
17 *69:A *64:28 0.3078
18 *64:9 *64:28 0.4841131
19 *64:7 *64:29 0.04909091
20 *64:29 *67:A2 0.3981819
21 *67:A2 *64:30 0.04136364
22 *64:31 *64:20 0.02738095
23 *64:19 *64:31 3.894019
24 *64:10 *64:32 0.02738096
25 *64:32 *64:33 0.3487304
26 *64:33 *64:17 0.9899663
27 *64:22 *64:34 0.02738095
28 *64:34 *64:15 0.6493146
29 *64:15 *64:17 4.245109
30 *64:35 *64:8 0.05476191
31 *64:8 *64:13 0.2088889
32 *64:36 *64:35 1.995984
33 *64:36 *64:37 0.4584127
34 *64:6 *64:38 0.02738095
35 *64:38 *64:37 3.078107
36 *64:18 *64:16 1.813496
37 *64:14 *64:12 9.131683

*END

*D_NET *70 0.6133775

*CONN
*I *65:Y O *L 0.0 *D AO22X1_RVT *C 27.8 34.804
*I *71:D I *L 496.4084 *C 32.391 34.391
*N *70:3 *C 27.952 33.88
*N *70:4 *C 27.952 33.88
*N *70:5 *C 27.952 33.88
*N *70:6 *C 32.208 33.88
*N *70:7 *C 32.208 33.88
*N *70:8 *C 32.208 34.488
*N *70:9 *C 32.208 34.488
*N *70:10 *C 27.876 33.88
*N *70:11 *C 32.284 34.518
*N *70:12 *C 32.208 34.442

*CAP
1 *65:Y 0.005939126
2 *71:D 0.01213991
3 *70:3 0.01445518
4 *70:4 0.02685029
5 *70:5 0.09281755
6 *70:6 0.07836236
7 *70:7 0.03175864
8 *70:8 0.0115188
9 *70:9 0.01599605
10 *70:10 0.03278941
11 *70:11 0.02813596
12 *70:12 0.04327745
13 *70:6 *64:12 0.07033096
14 *70:5 *64:14 0.07033096
15 *70:5 *72:10 0.03802156
16 *70:6 *388:6 0.02032655
17 *70:6 *388:8 0.02032655

*RES
1 *70:3 *70:4 1.0
2 *70:5 *70:3 0.5
3 *70:6 *70:7 0.5
4 *70:8 *70:9 1.0
5 *65:Y *70:10 0.1447369
6 *70:10 *70:4 0.03226891
7 *70:9 *70:11 0.05
8 *70:11 *71:D 0.38
9 *70:12 *70:8 0.02738095
10 *70:7 *70:12 0.9200649
11 *70:5 *70:6 7.503754

*END

*D_NET *72 1.506327

*CONN
*I *65:A4 I *L 499.7889 *C 27.192 34.488
*I *73:A3 I *L 497.9178 *C 28.839 30.84
*I *74:Y O *L 0.0 *D AND4X1_RVT *C 21.41 31.168
*N *72:4 *C 22.784 34.184
*N *72:5 *C 22.784 34.184
*N *72:6 *C 27.192 33.576
*N *72:7 *C 27.192 33.576
*N *72:8 *C 27.192 34.488
*N *72:9 *C 28.839 30.84
*N *72:10 *C 28.56 33.576
*N *72:11 *C 28.56 33.576
*N *72:12 *C 22.784 31.296
*N *72:13 *C 22.784 31.296
*N *72:14 *C 21.443 31.296
*N *72:15 *C 22.774 31.296
*N *72:16 *C 27.192 34.442
*N *72:17 *C 28.56 30.84
*N *72:18 *C 28.793 30.84
*N *72:19 *C 25.824 34.184
*N *72:20 *C 25.824 33.576

*CAP
1 *65:A4 0.0
2 *73:A3 0.0
3 *74:Y 0.01776877
4 *72:4 0.02188416
5 *72:5 0.1266198
6 *72:6 0.09557179
7 *72:7 0.04641892
8 *72:8 0.01176308
9 *72:9 0.01222655
10 *72:10 0.04000226
11 *72:11 0.1080394
12 *72:12 0.1266198
13 *72:13 0.006185563
14 *72:14 0.08415529
15 *72:15 0.07257207
16 *72:16 0.058182
17 *72:17 0.1212514
18 *72:18 0.02543858
19 *72:19 0.05281846
20 *72:20 0.08650383
21 *72:10 *70:5 0.03802156
22 *72:5 *368:8 0.03349725
23 *72:5 *368:15 0.03349725
24 *72:19 *408:5 0.04590449
25 *72:4 *408:8 0.04590449
26 *72:11 *440:6 0.03032798
27 *72:17 *440:16 0.03032798
28 *72:19 *10:22 0.01045323
29 *72:19 *10:66 0.06573231
30 *72:4 *10:106 0.05863905

*RES
1 *72:4 *72:5 0.5
2 *72:6 *72:7 0.5
3 *72:8 *65:A4 1.0
4 *72:9 *73:A3 1.0
5 *72:10 *72:11 0.5
6 *72:12 *72:13 1.0
7 *74:Y *72:14 0.2476786
8 *72:14 *72:15 2.56215
9 *72:15 *72:13 0.002564102
10 *72:12 *72:5 5.059177
11 *72:16 *72:8 0.02738095
12 *72:7 *72:16 1.45779
13 *72:17 *72:18 0.3425698
14 *72:18 *72:9 0.02555555
15 *72:17 *72:11 4.788659
16 *72:4 *72:19 5.332944
17 *72:20 *72:19 0.9941481
18 *72:20 *72:6 2.344863
19 *72:6 *72:10 2.350363

*END

*D_NET *75 0.1715492

*CONN
*I *76:A2 I *L 450.7719 *C 7.607 27.344
*I *77:Y O *L 0.0 *D NAND2X0_RVT *C 6.52 28.044
*N *75:3 *C 7.432 27.344
*N *75:4 *C 7.432 27.344
*N *75:5 *C 6.672 27.496
*N *75:6 *C 6.672 27.496
*N *75:7 *C 7.48 27.374
*N *75:8 *C 6.672 27.45
*N *75:9 *C 6.672 27.344
*N *75:10 *C 7.385 27.344

*CAP
1 *76:A2 0.008023398
2 *77:Y 0.0128298
3 *75:3 0.00551047
4 *75:4 0.01114671
5 *75:5 0.009265399
6 *75:6 0.0128298
7 *75:7 0.01917011
8 *75:8 0.01437987
9 *75:9 0.03899885
10 *75:10 0.03939484

*RES
1 *75:3 *75:4 1.0
2 *75:5 *75:6 1.0
3 *77:Y *75:6 0.3083334
4 *75:4 *75:7 0.05
5 *75:7 *76:A2 0.3287
6 *75:8 *75:5 0.02738096
7 *75:9 *75:8 0.1334963
8 *75:9 *75:10 1.176993
9 *75:10 *75:3 0.01424243

*END

*D_NET *78 0.4417031

*CONN
*I *76:Y O *L 0.0 *D AO22X1_RVT *C 8.344 28.116
*I *79:D I *L 496.4084 *C 8.831 31.047
*N *78:3 *C 8.496 27.192
*N *78:4 *C 8.496 27.192
*N *78:5 *C 8.648 31.144
*N *78:6 *C 8.648 31.144
*N *78:7 *C 8.42 27.192
*N *78:8 *C 8.496 27.238
*N *78:9 *C 8.496 29.624
*N *78:10 *C 8.648 29.624
*N *78:11 *C 8.648 31.098

*CAP
1 *76:Y 0.005490246
2 *79:D 0.01238766
3 *78:3 0.001329817
4 *78:4 0.02553983
5 *78:5 0.00736238
6 *78:6 0.01238766
7 *78:7 0.03103008
8 *78:8 0.06267119
9 *78:9 0.0687741
10 *78:10 0.01981965
11 *78:11 0.01974931
12 *78:8 *2:9 0.03830335
13 *78:10 *1:24 0.04436184
14 *78:5 *1:96 0.001981864
15 *78:11 *1:96 0.04634371
16 *78:9 *1:24 0.01341018
17 *78:8 *1:24 0.03076022

*RES
1 *78:3 *78:4 1.0
2 *78:5 *78:6 1.0
3 *76:Y *78:7 0.1447369
4 *78:7 *78:4 0.03226891
5 *78:6 *79:D 0.2352941
6 *78:3 *78:8 0.02738096
7 *78:8 *78:9 4.165236
8 *78:9 *78:10 0.1983517
9 *78:11 *78:5 0.02738095
10 *78:10 *78:11 2.534007

*END

*D_NET *2 4.005704

*CONN
*I *76:A1 I *L 435.1929 *C 7.432 27.648
*I *80:A2 I *L 471.5846 *C 7.401 32.36
*I *81:A1 I *L 435.1929 *C 17.312 27.652
*I *82:A2 I *L 405.9669 *C 12.293 29.168
*I *83:A1 I *L 503.5117 *C 17.312 29.164
*I *84:A I *L 688.1503 *C 14.726 27.645
*P *2 I *C 8.192 0.028
*N *2:8 *C 8.192 27.648
*N *2:9 *C 8.192 27.648
*N *2:10 *C 7.432 27.648
*N *2:11 *C 7.432 27.648
*N *2:12 *C 7.432 28.408
*N *2:13 *C 7.432 28.408
*N *2:14 *C 17.312 28.104
*N *2:15 *C 17.312 28.104
*N *2:16 *C 17.312 27.652
*N *2:17 *C 17.312 29.164
*N *2:18 *C 7.432 31.904
*N *2:19 *C 7.432 31.904
*N *2:20 *C 14.88 27.648
*N *2:21 *C 14.88 27.648
*N *2:22 *C 14.88 28.104
*N *2:23 *C 14.88 28.104
*N *2:24 *C 12.6 28.408
*N *2:25 *C 12.6 28.408
*N *2:26 *C 12.6 28.864
*N *2:27 *C 12.6 28.864
*N *2:28 *C 12.283 29.193
*N *2:29 *C 12.6 29.168
*N *2:30 *C 7.432 31.858
*N *2:31 *C 12.6 28.818
*N *2:32 *C 14.88 27.694
*N *2:33 *C 17.312 27.698
*N *2:34 *C 17.312 29.118
*N *2:35 *C 12.904 28.408
*N *2:36 *C 12.904 28.104

*CAP
1 *76:A1 0.0
2 *80:A2 0.0228639
3 *81:A1 0.0
4 *82:A2 0.05587931
5 *83:A1 0.0
6 *84:A 0.03996763
7 *2 1.04013
8 *2:8 0.04700122
9 *2:9 1.04013
10 *2:10 0.04700122
11 *2:11 0.03480703
12 *2:12 0.2066674
13 *2:13 0.1715066
14 *2:14 0.1065696
15 *2:15 0.06910402
16 *2:16 0.01146534
17 *2:17 0.01202794
18 *2:18 0.01134402
19 *2:19 0.0228639
20 *2:20 0.01207278
21 *2:21 0.03996763
22 *2:22 0.1833056
23 *2:23 0.02702348
24 *2:24 0.219007
25 *2:25 0.02321609
26 *2:26 0.01102628
27 *2:27 0.01328238
28 *2:28 0.00712288
29 *2:29 0.06203881
30 *2:30 0.1480436
31 *2:31 0.03424237
32 *2:32 0.03909626
33 *2:33 0.03221085
34 *2:34 0.06038645
35 *2:35 0.02581585
36 *2:36 0.09021219
37 *2:9 *78:8 0.03830335

*RES
1 *2:8 *2:9 0.5
2 *2:10 *2:11 0.25
3 *2:12 *2:13 0.5
4 *2:14 *2:15 0.5
5 *2:16 *81:A1 1.0
6 *2:11 *76:A1 1.0
7 *2:17 *83:A1 1.0
8 *2:18 *2:19 1.0
9 *2:20 *2:21 1.0
10 *2:22 *2:23 0.5
11 *2:24 *2:25 0.5
12 *2:26 *2:27 1.0
13 *2:19 *80:A2 0.465
14 *82:A2 *2:28 0.05840163
15 *82:A2 *2:29 0.524234
16 *2:27 *2:29 0.5042458
17 *84:A *2:21 0.155353
18 *2:30 *2:18 0.02738096
19 *2:11 *2:13 1.272322
20 *2:13 *2:30 6.062313
21 *2 *2:9 49.22173
22 *2:31 *2:26 0.02738095
23 *2:25 *2:31 0.6534481
24 *2:20 *2:32 0.02738095
25 *2:32 *2:23 0.6575975
26 *2:16 *2:33 0.02738096
27 *2:34 *2:17 0.02738096
28 *2:33 *2:15 0.6423117
29 *2:15 *2:34 1.715948
30 *2:10 *2:8 1.264006
31 *2:12 *2:24 9.130674
32 *2:24 *2:35 0.4645066
33 *2:36 *2:22 3.43265
34 *2:22 *2:14 4.247222
35 *2:36 *2:35 0.4428571

*END

*D_NET *85 1.095134

*CONN
*I *86:Y O *L 0.0 *D NAND3X0_RVT *C 29.928 13.033
*I *87:D I *L 496.4084 *C 36.799 9.049
*N *85:3 *C 36.312 8.952
*N *85:4 *C 36.312 8.952
*N *85:5 *C 36.312 8.952
*N *85:6 *C 31.144 8.952
*N *85:7 *C 31.144 8.952
*N *85:8 *C 31.144 10.168
*N *85:9 *C 31.144 10.168
*N *85:10 *C 30.232 12.144
*N *85:11 *C 30.232 12.144
*N *85:12 *C 30.232 10.472
*N *85:13 *C 30.232 10.472
*N *85:14 *C 30.232 12.6
*N *85:15 *C 31.144 10.472