*SPEF "1481-1998"
*DESIGN "s15850"
*DATE "Fri Mar  1 17:47:03 2019"
*VENDOR "Synopsys, Inc."
*PROGRAM "icc_shell"
*VERSION "L-2016.03-SP5-1"
*DESIGN_FLOW "PIN_CAP NONE"
*DIVIDER /
*DELIMITER :
*BUS_DELIMITER [ ]
*T_UNIT 1 NS
*C_UNIT 1 FF
*R_UNIT 1 OHM
*L_UNIT 1 HENRY

*NAME_MAP
*1 g102
*2 g101
*3 g100
*4 CK
*5 VDD
*6 GND
*7 VDDA
*8 VSS
*9 g1182
*10 g1179
*11 g1176
*12 g1173
*13 g1170
*14 g109
*15 g104
*16 g103
*17 g1696
*18 g1203
*19 g1200
*20 g1197
*21 g1194
*22 g1191
*23 g1188
*24 g1185
*25 g28
*26 g27
*27 g23
*28 g1961
*29 g1960
*30 g18
*31 g1712
*32 g1700
*33 g45
*34 g44
*35 g43
*36 g42
*37 g41
*38 g31
*39 g30
*40 g29
*41 g750
*42 g744
*43 g743
*44 g742
*45 g741
*46 g48
*47 g47
*48 g46
*49 g873
*50 g872
*51 g87
*52 g86
*53 g85
*54 g84
*55 g83
*56 g82
*57 g895
*58 g892
*59 g89
*60 g889
*61 g886
*62 g881
*63 g88
*64 g877
*65 g913
*66 g910
*67 g91
*68 g907
*69 g904
*70 g901
*71 g90
*72 g898
*73 g95
*74 g94
*75 g93
*76 g925
*77 g922
*78 g92
*79 g919
*80 g916
*81 g10461
*82 g10459
*83 g10457
*84 g10455
*85 g10379
*86 g10377
*87 g99
*88 g96
*89 g1957
*90 g11489
*91 g11206
*92 g11163
*93 g10801
*94 g10628
*95 g10465
*96 g10463
*97 g2607
*98 g2606
*99 g2605
*100 g2604
*101 g2603
*102 g2602
*103 g2601
*104 g2355
*105 g3007
*106 g2986
*107 g2648
*108 g2612
*109 g2611
*110 g2610
*111 g2609
*112 g2608
*113 g4176
*114 g4175
*115 g4174
*116 g4173
*117 g4172
*118 g4171
*119 g3327
*120 g3069
*121 g4193
*122 g4192
*123 g4191
*124 g4181
*125 g4180
*126 g4179
*127 g4178
*128 g4177
*129 g4201
*130 g4200
*131 g4199
*132 g4198
*133 g4197
*134 g4196
*135 g4195
*136 g4194
*137 g4209
*138 g4208
*139 g4207
*140 g4206
*141 g4205
*142 g4204
*143 g4203
*144 g4202
*145 g4887
*146 g4216
*147 g4215
*148 g4214
*149 g4213
*150 g4212
*151 g4211
*152 g4210
*153 g6254
*154 g6253
*155 g5816
*156 g5659
*157 g5658
*158 g5105
*159 g5101
*160 g4888
*161 g6262
*162 g6261
*163 g6260
*164 g6259
*165 g6258
*166 g6257
*167 g6256
*168 g6255
*169 g6270
*170 g6269
*171 g6268
*172 g6267
*173 g6266
*174 g6265
*175 g6264
*176 g6263
*177 g6278
*178 g6277
*179 g6276
*180 g6275
*181 g6274
*182 g6273
*183 g6272
*184 g6271
*185 g6842
*186 g6285
*187 g6284
*188 g6283
*189 g6282
*190 g6281
*191 g6280
*192 g6279
*193 g8061
*194 g7744
*195 g6955
*196 g6949
*197 g6942
*198 g6932
*199 g6926
*200 g6920
*201 g8331
*202 g8328
*203 g8323
*204 g8318
*205 g8316
*206 g8313
*207 g8271
*208 g8062
*209 g8563
*210 g8562
*211 g8561
*212 g8352
*213 g8349
*214 g8347
*215 g8340
*216 g8335
*217 g8980
*218 g8979
*219 g8978
*220 g8977
*221 g8976
*222 g8566
*223 g8565
*224 g8564
*225 g9961
*226 g9451
*227 g8986
*228 g8985
*229 g8984
*230 g8983
*231 g8982
*232 g8981
*233 U2666
*234 g11286
*235 U1595
*236 U1460
*237 DFF_92/q_reg
*238 n1738
*239 U2361
*240 U2360
*241 n1737
*242 U2665
*243 U1892
*244 U1891
*245 U1762
*246 U1703
*247 U1508
*248 n942
*249 DFF_137/q_reg
*250 n1735
*251 U2664
*252 U1890
*253 U1598
*254 n1736
*255 U1751
*256 U1750
*257 U1594
*258 n945
*259 DFF_398/q_reg
*260 g2791
*261 U2663
*262 U2662
*263 g3462
*264 DFF_431/q_reg
*265 U2045
*266 DFF_89/q_reg
*267 DFF_80/q_reg
*268 g754
*269 U1901
*270 n1733
*271 U1705
*272 g5556
*273 U2661
*274 DFF_318/q_reg
*275 n1731
*276 U2660
*277 n1753
*278 U2576
*279 U2518
*280 U2494
*281 U2198
*282 U1453
*283 DFF_276/q_reg
*284 U2629
*285 U2615
*286 U2591
*287 U2582
*288 U2578
*289 n1732
*290 U2659
*291 g1781
*292 DFF_332/q_reg
*293 U2580
*294 U2345
*295 U1956
*296 U1954
*297 U1951
*298 U1950
*299 U1653
*300 n1730
*301 U2581
*302 U2346
*303 U2343
*304 g1707
*305 DFF_77/q_reg
*306 n1729
*307 U2344
*308 g1786
*309 U2577
*310 U2193
*311 U2149
*312 DFF_59/q_reg
*313 g1806
*314 U2347
*315 U1652
*316 DFF_346/q_reg
*317 g1791
*318 U2148
*319 U1953
*320 DFF_75/q_reg
*321 g4076
*322 U2658
*323 U1938
*324 n1838
*325 N599
*326 U2657
*327 DFF_269/q_reg
*328 g590
*329 U1604
*330 DFF_54/q_reg
*331 n1728
*332 U2656
*333 n1727
*334 U2199
*335 U1522
*336 g790
*337 DFF_434/q_reg
*338 n1726
*339 U2440
*340 U1507
*341 U2655
*342 U2612
*343 U2590
*344 U2562
*345 U2542
*346 U2535
*347 U2532
*348 U2488
*349 n1226
*350 U1893
*351 U1866
*352 U1864
*353 g10336
*354 g354
*355 U2654
*356 U2094
*357 DFF_70/q_reg
*358 g6071
*359 DFF_94/q_reg
*360 g1086
*361 U1988
*362 g654
*363 U2653
*364 U2299
*365 DFF_196/q_reg
*366 g7660
*367 n1724
*368 U2298
*369 U1540
*370 n1723
*371 U2302
*372 U2301
*373 g281
*374 U2652
*375 U1801
*376 DFF_133/q_reg
*377 g6928
*378 g174
*379 U2333
*380 U2251
*381 DFF_102/q_reg
*382 g709
*383 U2651
*384 U2552
*385 U2486
*386 DFF_15/q_reg
*387 g8432
*388 n1721
*389 U2427
*390 U2637
*391 U2606
*392 U2605
*393 U2585
*394 U2448
*395 U2428
*396 g700
*397 U2482
*398 DFF_281/q_reg
*399 g275
*400 U2650
*401 U1858
*402 DFF_390/q_reg
*403 g6915
*404 g158
*405 U2349
*406 U2249
*407 DFF_190/q_reg
*408 n1720
*409 U2649
*410 U2648
*411 g8937
*412 DFF_354/q_reg
*413 n1719
*414 U2426
*415 U2417
*416 U2635
*417 U2604
*418 U2522
*419 U2499
*420 U2471
*421 U2446
*422 U2438
*423 n1718
*424 U2425
*425 g1891
*426 U2208
*427 U2202
*428 n1717
*429 U2647
*430 g1896
*431 U2593
*432 U2541
*433 DFF_85/q_reg
*434 n1715
*435 U2646
*436 n1713
*437 U2421
*438 U1712
*439 U2633
*440 U2602
*441 U2520
*442 U2497
*443 U2469
*444 U2444
*445 U2436
*446 n1714
*447 U2420
*448 U2418
*449 U20
*450 U2632
*451 U2519
*452 U2496
*453 U2443
*454 g1882
*455 U2470
*456 DFF_1/q_reg
*457 n1826
*458 n1712
*459 U2468
*460 U2207
*461 n1711
*462 U2201
*463 U1569
*464 n1768
*465 DFF_449/q_reg
*466 g290
*467 U2645
*468 U1785
*469 DFF_251/q_reg
*470 g6907
*471 g131
*472 U2330
*473 DFF_444/q_reg
*474 n1701
*475 U2429
*476 U1638
*477 U2434
*478 U2526
*479 U2626
*480 U2545
*481 U2587
*482 U2433
*483 U2630
*484 U2639
*485 U2431
*486 U2566
*487 U17
*488 g1574
*489 U2644
*490 U1827
*491 DFF_17/q_reg
*492 n951
*493 U1451
*494 U2627
*495 U2544
*496 U2533
*497 U2503
*498 U2491
*499 U2489
*500 U2430
*501 g6478
*502 g1515
*503 U2374
*504 U2289
*505 U2286
*506 DFF_494/q_reg
*507 n1710
*508 U2643
*509 U2642
*510 g8922
*511 DFF_381/q_reg
*512 n1708
*513 U2465
*514 U2464
*515 U2611
*516 U2597
*517 U2570
*518 U2560
*519 U2555
*520 U2531
*521 U2484
*522 g668
*523 U2607
*524 U2319
*525 U2315
*526 n1707
*527 U2641
*528 g673
*529 DFF_488/q_reg
*530 n1705
*531 U2640
*532 n1703
*533 U2609
*534 U2608
*535 n1704
*536 U2460
*537 U2459
*538 U2458
*539 U21
*540 U2567
*541 U2558
*542 U2550
*543 U2529
*544 U2481
*545 g658
*546 U2530
*547 DFF_395/q_reg
*548 n1702
*549 U1565
*550 g269
*551 U1834
*552 DFF_176/q_reg
*553 g6906
*554 g148
*555 U2310
*556 DFF_337/q_reg
*557 g1564
*558 U2638
*559 U1748
*560 DFF_130/q_reg
*561 g6546
*562 g1453
*563 U2406
*564 U2246
*565 U2244
*566 DFF_237/q_reg
*567 g727
*568 DFF_427/q_reg
*569 g8434
*570 g718
*571 U2594
*572 DFF_48/q_reg
*573 g10765
*574 U2636
*575 DFF_423/q_reg
*576 g1654
*577 n1825
*578 U1722
*579 DFF_113/q_reg
*580 n1725
*581 U2584
*582 U12
*583 U2435
*584 U2452
*585 U2540
*586 U2598
*587 U2517
*588 U2513
*589 U2504
*590 U2394
*591 U2523
*592 U2589
*593 U2573
*594 U2547
*595 U2432
*596 U2548
*597 n1700
*598 U2413
*599 U2058
*600 U2057
*601 U1544
*602 g8944
*603 DFF_212/q_reg
*604 n1699
*605 U2634
*606 n1698
*607 n1788
*608 U2206
*609 n1697
*610 g1941
*611 U2571
*612 U2454
*613 DFF_313/q_reg
*614 n1696
*615 U2211
*616 U2210
*617 n1695
*618 U2205
*619 g554
*620 U2631
*621 U2055
*622 DFF_50/q_reg
*623 n1004
*624 U1980
*625 U1978
*626 U1974
*627 U1970
*628 U1967
*629 U1677
*630 U2528
*631 U2069
*632 U2068
*633 U2065
*634 U2009
*635 U2006
*636 U1995
*637 n1694
*638 U1983
*639 U1982
*640 g10793
*641 g1718
*642 U1979
*643 U2561
*644 U2534
*645 U2512
*646 g302
*647 U1765
*648 DFF_229/q_reg
*649 g6929
*650 g143
*651 U2382
*652 U2380
*653 DFF_296/q_reg
*654 g1672
*655 DFF_26/q_reg
*656 g3399
*657 g1690
*658 U1965
*659 U2575
*660 g1601
*661 U2628
*662 U1815
*663 DFF_218/q_reg
*664 g6501
*665 g1440
*666 U2366
*667 DFF_503/q_reg
*668 g1595
*669 U1768
*670 DFF_425/q_reg
*671 g6479
*672 g1432
*673 U2228
*674 DFF_235/q_reg
*675 g278
*676 U1741
*677 DFF_46/q_reg
*678 g6922
*679 g162
*680 U2398
*681 DFF_490/q_reg
*682 n1691
*683 U16
*684 U2625
*685 U2502
*686 U2456
*687 U2401
*688 U2391
*689 U2300
*690 n1690
*691 U2624
*692 n1839
*693 U2231
*694 DFF_347/q_reg
*695 g8631
*696 DFF_360/q_reg
*697 n1692
*698 U2618
*699 n1689
*700 U2623
*701 n1688
*702 U1572
*703 n1807
*704 U2392
*705 U2326
*706 DFF_43/q_reg
*707 g636
*708 DFF_267/q_reg
*709 g4892
*710 U2616
*711 DFF_157/q_reg
*712 n1686
*713 U2621
*714 n1685
*715 U2622
*716 n1744
*717 U2463
*718 U2400
*719 U2385
*720 U1932
*721 DFF_310/q_reg
*722 n1683
*723 U2620
*724 U2384
*725 n1684
*726 U2372
*727 U2371
*728 n1751
*729 U2368
*730 U2328
*731 DFF_135/q_reg
*732 n1681
*733 n1682
*734 U2619
*735 g591
*736 U2313
*737 U2312
*738 DFF_358/q_reg
*739 g639
*740 U2501
*741 DFF_72/q_reg
*742 n1784
*743 U2324
*744 g255
*745 DFF_2/q_reg
*746 DFF_270/q_reg
*747 g622
*748 n1679
*749 U2049
*750 U2040
*751 U1580
*752 n1678
*753 U2041
*754 n1677
*755 U2617
*756 n1680
*757 U2490
*758 U2192
*759 U2039
*760 U1474
*761 g822
*762 U2048
*763 U2044
*764 DFF_367/q_reg
*765 DFF_99/q_reg
*766 g818
*767 U2194
*768 U2043
*769 DFF_405/q_reg
*770 DFF_387/q_reg
*771 g632
*772 DFF_117/q_reg
*773 n1676
*774 U2536
*775 U2367
*776 U2353
*777 U2274
*778 U1567
*779 g1681
*780 DFF_206/q_reg
*781 g3431
*782 g1663
*783 DFF_280/q_reg
*784 g1534
*785 U2614
*786 U1822
*787 DFF_42/q_reg
*788 g6533
*789 g1494
*790 U2363
*791 U2245
*792 DFF_519/q_reg
*793 n1675
*794 U1725
*795 U2613
*796 U2191
*797 U2052
*798 U2047
*799 U2046
*800 g794
*801 U2195
*802 DFF_55/q_reg
*803 DFF_227/q_reg
*804 g5849
*805 n956
*806 U1867
*807 U1585
*808 g10405
*809 n1674
*810 U2610
*811 g8883
*812 DFF_450/q_reg
*813 g677
*814 n1673
*815 g682
*816 DFF_60/q_reg
*817 n1672
*818 n1671
*819 U2461
*820 U2595
*821 U2568
*822 U2553
*823 n1820
*824 g8430
*825 DFF_521/q_reg
*826 g691
*827 g8428
*828 g664
*829 U2516
*830 DFF_180/q_reg
*831 g8940
*832 DFF_300/q_reg
*833 n1669
*834 U2603
*835 n1668
*836 n1811
*837 U2442
*838 n1667
*839 U2601
*840 g1923
*841 U2556
*842 U2451
*843 DFF_339/q_reg
*844 n1666
*845 U2600
*846 n1664
*847 n1665
*848 U2441
*849 g1577
*850 U2599
*851 DFF_392/q_reg
*852 g6480
*853 g1419
*854 U2376
*855 U2290
*856 U2242
*857 DFF_90/q_reg
*858 g357
*859 U2095
*860 DFF_216/q_reg
*861 g6080
*862 DFF_290/q_reg
*863 g1089
*864 n1663
*865 U2596
*866 g8920
*867 DFF_6/q_reg
*868 g713
*869 U2322
*870 U2317
*871 n1662
*872 n1661
*873 n1660
*874 U2551
*875 g704
*876 DFF_57/q_reg
*877 n1659
*878 U2549
*879 n1810
*880 U2554
*881 n1658
*882 U2450
*883 U2586
*884 U2525
*885 g8283
*886 DFF_493/q_reg
*887 g1905
*888 n992
*889 U2592
*890 U2475
*891 U1519
*892 n1655
*893 U1454
*894 U13
*895 U2546
*896 U2538
*897 U2011
*898 U1456
*899 g10711
*900 DFF_321/q_reg
*901 g1733
*902 U1860
*903 g1684
*904 U2060
*905 DFF_73/q_reg
*906 g3435
*907 g1666
*908 DFF_504/q_reg
*909 n1654
*910 U1491
*911 U1465
*912 g10408
*913 g363
*914 U2145
*915 DFF_238/q_reg
*916 g6093
*917 DFF_56/q_reg
*918 g1095
*919 U1968
*920 g1558
*921 U2588
*922 U1814
*923 DFF_10/q_reg
*924 g6538
*925 g1462
*926 U2407
*927 U2342
*928 DFF_306/q_reg
*929 g272
*930 DFF_345/q_reg
*931 g6910
*932 g153
*933 U2381
*934 U2354
*935 DFF_147/q_reg
*936 g1887
*937 DFF_349/q_reg
*938 g8281
*939 g1878
*940 U2527
*941 DFF_532/q_reg
*942 g8429
*943 g10863
*944 n1652
*945 U2583
*946 n1653
*947 U2574
*948 g11294
*949 DFF_178/q_reg
*950 n1649
*951 U2480
*952 U2283
*953 U2234
*954 U1479
*955 n1650
*956 n1651
*957 U2579
*958 n1646
*959 n1647
*960 n1648
*961 U1625
*962 g1776
*963 U1948
*964 U1946
*965 U1655
*966 DFF_523/q_reg
*967 g10721
*968 U1869
*969 U1597
*970 U1591
*971 DFF_242/q_reg
*972 g10722
*973 U1492
*974 U1464
*975 DFF_228/q_reg
*976 n1645
*977 n1868
*978 U1490
*979 DFF_350/q_reg
*980 g10726
*981 U2357
*982 U1854
*983 U1766
*984 DFF_116/q_reg
*985 n1644
*986 g10720
*987 U2563
*988 U1587
*989 U1458
*990 U1457
*991 DFF_384/q_reg
*992 g10719
*993 U1455
*994 U1447
*995 U1446
*996 DFF_168/q_reg
*997 n1643
*998 g1771
*999 U1945
*1000 U1943
*1001 U1656
*1002 DFF_268/q_reg
*1003 g1766
*1004 U2449
*1005 U1942
*1006 U1654
*1007 DFF_103/q_reg
*1008 n1813
*1009 U2474
*1010 g1857
*1011 U2215
*1012 n1640
*1013 U2495
*1014 U1531
*1015 n1642
*1016 U2307
*1017 U1937
*1018 U1936
*1019 n1641
*1020 U2308
*1021 U2256
*1022 U1716
*1023 U1470
*1024 g348
*1025 U2093
*1026 DFF_440/q_reg
*1027 g6059
*1028 DFF_173/q_reg
*1029 g1080
*1030 U1987
*1031 n1841
*1032 U2572
*1033 U2412
*1034 DFF_352/q_reg
*1035 n1639
*1036 U2472
*1037 U2416
*1038 U2390
*1039 U2230
*1040 U1538
*1041 g6755
*1042 DFF_385/q_reg
*1043 g8288
*1044 DFF_155/q_reg
*1045 g1950
*1046 U2306
*1047 g8885
*1048 DFF_316/q_reg
*1049 n1638
*1050 U2569
*1051 n1637
*1052 n1809
*1053 n1636
*1054 n1635
*1055 n1634
*1056 U2320
*1057 g263
*1058 U1798
*1059 DFF_386/q_reg
*1060 g6897
*1061 g182
*1062 U1637
*1063 DFF_364/q_reg
*1064 g1592
*1065 U2565
*1066 U1795
*1067 DFF_371/q_reg
*1068 g6470
*1069 g1403
*1070 U2352
*1071 DFF_415/q_reg
*1072 n1632
*1073 U2564
*1074 n1631
*1075 U1941
*1076 U1505
*1077 g10936
*1078 DFF_420/q_reg
*1079 g1811
*1080 U2005
*1081 n1633
*1082 U2396
*1083 n1630
*1084 U2196
*1085 U1678
*1086 U1520
*1087 n1629
*1088 n1625
*1089 U1863
*1090 U1592
*1091 g10417
*1092 g575
*1093 U2001
*1094 DFF_211/q_reg
*1095 n1003
*1096 U1977
*1097 U1969
*1098 U1660
*1099 U1612
*1100 U2067
*1101 U2064
*1102 U2062
*1103 U1993
*1104 U1991
*1105 g10800
*1106 n1624
*1107 U2341
*1108 U1562
*1109 n1623
*1110 U2559
*1111 g8926
*1112 DFF_359/q_reg
*1113 g731
*1114 U2325
*1115 n1622
*1116 g736
*1117 U2370
*1118 DFF_86/q_reg
*1119 n1621
*1120 U2557
*1121 n1619
*1122 U2323
*1123 n1620
*1124 U2318
*1125 g8285
*1126 g1914
*1127 DFF_209/q_reg
*1128 g8889
*1129 n1618
*1130 n1617
*1131 n1616
*1132 n1615
*1133 n1614
*1134 U2316
*1135 n1612
*1136 n1613
*1137 U2321
*1138 g336
*1139 DFF_263/q_reg
*1140 g6054
*1141 DFF_376/q_reg
*1142 g1068
*1143 g345
*1144 U1931
*1145 DFF_266/q_reg
*1146 g5914
*1147 DFF_27/q_reg
*1148 g1077
*1149 g10773
*1150 DFF_370/q_reg
*1151 g1727
*1152 U1830
*1153 g296
*1154 U1824
*1155 DFF_279/q_reg
*1156 g6916
*1157 g139
*1158 U2411
*1159 DFF_382/q_reg
*1160 g1524
*1161 U1796
*1162 DFF_391/q_reg
*1163 g6513
*1164 g1508
*1165 DFF_201/q_reg
*1166 g1555
*1167 U2543
*1168 U1826
*1169 DFF_514/q_reg
*1170 g6534
*1171 g1466
*1172 U2408
*1173 U2379
*1174 DFF_139/q_reg
*1175 n1627
*1176 g10402
*1177 g8282
*1178 g342
*1179 U2143
*1180 DFF_230/q_reg
*1181 g6099
*1182 DFF_170/q_reg
*1183 g1074
*1184 g1546
*1185 U2539
*1186 U1807
*1187 DFF_258/q_reg
*1188 g6551
*1189 g1478
*1190 U2389
*1191 DFF_273/q_reg
*1192 n1611
*1193 g10707
*1194 DFF_96/q_reg
*1195 g1730
*1196 U1818
*1197 g1549
*1198 U2537
*1199 U1794
*1200 DFF_453/q_reg
*1201 g6523
*1202 g1474
*1203 U2281
*1204 DFF_172/q_reg
*1205 n1782
*1206 U2466
*1207 U2296
*1208 DFF_191/q_reg
*1209 g6672
*1210 DFF_336/q_reg
*1211 n1610
*1212 g10411
*1213 g549
*1214 U2056
*1215 DFF_159/q_reg
*1216 n1609
*1217 U2332
*1218 U1564
*1219 g10855
*1220 g1580
*1221 U1856
*1222 DFF_20/q_reg
*1223 g6500
*1224 g1411
*1225 U2399
*1226 DFF_169/q_reg
*1227 n1608
*1228 U1865
*1229 g10339
*1230 n1607
*1231 g8973
*1232 n1606
*1233 g1675
*1234 DFF_69/q_reg
*1235 g10860
*1236 n1604
*1237 U2235
*1238 g8559
*1239 n1605
*1240 U2304
*1241 U22
*1242 g287
*1243 DFF_259/q_reg
*1244 g6901
*1245 g127
*1246 U2255
*1247 DFF_508/q_reg
*1248 g8284
*1249 g1540
*1250 U2524
*1251 DFF_326/q_reg
*1252 n1597
*1253 U2487
*1254 U2453
*1255 U1639
*1256 U2500
*1257 U2485
*1258 U2511
*1259 U2455
*1260 U2514
*1261 U2492
*1262 U2439
*1263 U2515
*1264 U18
*1265 g6541
*1266 g1486
*1267 U2339
*1268 DFF_95/q_reg
*1269 g339
*1270 U2146
*1271 DFF_499/q_reg
*1272 g5910
*1273 DFF_292/q_reg
*1274 g1071
*1275 U1971
*1276 g8938
*1277 DFF_333/q_reg
*1278 n1603
*1279 U2521
*1280 n1602
*1281 n1808
*1282 n1601
*1283 n1600
*1284 n1599
*1285 U2203
*1286 g1678
*1287 DFF_101/q_reg
*1288 g3425
*1289 g1660
*1290 DFF_45/q_reg
*1291 g10859
*1292 g8649
*1293 n1598
*1294 U23
*1295 g1531
*1296 DFF_164/q_reg
*1297 g6528
*1298 g1499
*1299 U2229
*1300 DFF_34/q_reg
*1301 g1607
*1302 DFF_477/q_reg
*1303 g6515
*1304 g1448
*1305 U2340
*1306 DFF_143/q_reg
*1307 g10861
*1308 g572
*1309 U2010
*1310 DFF_166/q_reg
*1311 g10718
*1312 n1596
*1313 U2378
*1314 U1546
*1315 g1604
*1316 U1857
*1317 DFF_81/q_reg
*1318 g6507
*1319 g1444
*1320 U2239
*1321 DFF_36/q_reg
*1322 g105
*1323 U2510
*1324 U2358
*1325 DFF_161/q_reg
*1326 n1595
*1327 U1624
*1328 g10898
*1329 n1594
*1330 U2509
*1331 n1593
*1332 U2508
*1333 g995
*1334 U1883
*1335 U1882
*1336 DFF_515/q_reg
*1337 g991
*1338 DFF_497/q_reg
*1339 n1592
*1340 U2507
*1341 g1019
*1342 U1876
*1343 U1875
*1344 DFF_87/q_reg
*1345 g999
*1346 DFF_428/q_reg
*1347 n1591
*1348 U2506
*1349 g1027
*1350 U1895
*1351 DFF_413/q_reg
*1352 g1011
*1353 U1986
*1354 U1878
*1355 U1877
*1356 DFF_167/q_reg
*1357 n1590
*1358 U2505
*1359 g1023
*1360 DFF_192/q_reg
*1361 g1015
*1362 U1881
*1363 U1880
*1364 DFF_115/q_reg
*1365 n1830
*1366 DFF_108/q_reg
*1367 n1764
*1368 U1879
*1369 DFF_414/q_reg
*1370 g1007
*1371 g1003
*1372 g1657
*1373 DFF_285/q_reg
*1374 g10767
*1375 g1543
*1376 DFF_39/q_reg
*1377 g6545
*1378 g1482
*1379 U2254
*1380 DFF_277/q_reg
*1381 n1589
*1382 g7626
*1383 n1588
*1384 U2327
*1385 U1468
*1386 n1586
*1387 n1587
*1388 U1933
*1389 g1583
*1390 U1739
*1391 DFF_254/q_reg
*1392 g6506
*1393 g1424
*1394 U2294
*1395 U2291
*1396 DFF_24/q_reg
*1397 n1585
*1398 U2498
*1399 g8939
*1400 DFF_461/q_reg
*1401 g1909
*1402 U2209
*1403 U2204
*1404 n1584
*1405 n1583
*1406 g1900
*1407 g1868
*1408 DFF_111/q_reg
*1409 g6909
*1410 n1582
*1411 U2214
*1412 U1566
*1413 g3414
*1414 g9931
*1415 U2493
*1416 n1581
*1417 U1728
*1418 U1704
*1419 n1580
*1420 U1749
*1421 U1723
*1422 U1709
*1423 U1506
*1424 n1579
*1425 U1583
*1426 g1552
*1427 U1527
*1428 DFF_463/q_reg
*1429 g6529
*1430 g1470
*1431 U2405
*1432 DFF_98/q_reg
*1433 g1561
*1434 DFF_256/q_reg
*1435 g6542
*1436 g1458
*1437 DFF_165/q_reg
*1438 n1578
*1439 g6243
*1440 DFF_429/q_reg
*1441 g798
*1442 DFF_338/q_reg
*1443 g1537
*1444 U1855
*1445 DFF_426/q_reg
*1446 g6537
*1447 g1490
*1448 U2355
*1449 U1636
*1450 DFF_437/q_reg
*1451 g10414
*1452 g1528
*1453 DFF_505/q_reg
*1454 g6522
*1455 g1504
*1456 U2404
*1457 DFF_97/q_reg
*1458 g8433
*1459 g1586
*1460 U1800
*1461 DFF_466/q_reg
*1462 g6514
*1463 g1407
*1464 U2334
*1465 DFF_109/q_reg
*1466 n1577
*1467 U2483
*1468 g8887
*1469 DFF_11/q_reg
*1470 g695
*1471 n1576
*1472 n1575
*1473 g686
*1474 n1572
*1475 n1574
*1476 U2232
*1477 g11293
*1478 DFF_311/q_reg
*1479 n1573
*1480 U2479
*1481 n1571
*1482 U2476
*1483 n1569
*1484 n1570
*1485 U2478
*1486 g1854
*1487 DFF_445/q_reg
*1488 n1568
*1489 U2477
*1490 n1743
*1491 U2423
*1492 U2233
*1493 U1935
*1494 DFF_369/q_reg
*1495 n1755
*1496 U2222
*1497 U2218
*1498 DFF_297/q_reg
*1499 n1739
*1500 U2473
*1501 U2257
*1502 DFF_455/q_reg
*1503 n1778
*1504 U2220
*1505 DFF_302/q_reg
*1506 n1567
*1507 g4904
*1508 DFF_489/q_reg
*1509 n1566
*1510 n1565
*1511 U2219
*1512 n1564
*1513 n1563
*1514 U2217
*1515 U1570
*1516 g1850
*1517 DFF_252/q_reg
*1518 n1562
*1519 g8943
*1520 n1561
*1521 n1560
*1522 g7441
*1523 U2467
*1524 DFF_518/q_reg
*1525 n1559
*1526 n1558
*1527 U2365
*1528 U2297
*1529 n1557
*1530 U2303
*1531 g643
*1532 g8923
*1533 DFF_286/q_reg
*1534 n1556
*1535 U2462
*1536 g605
*1537 U1634
*1538 DFF_362/q_reg
*1539 n1554
*1540 U24
*1541 n1687
*1542 n1555
*1543 U1475
*1544 n1779
*1545 U2387
*1546 n1553
*1547 n1790
*1548 n1552
*1549 n1551
*1550 n1550
*1551 n1549
*1552 n1780
*1553 DFF_261/q_reg
*1554 n1548
*1555 U1467
*1556 U2386
*1557 g1589
*1558 U1809
*1559 DFF_138/q_reg
*1560 g6524
*1561 g1428
*1562 U2225
*1563 DFF_128/q_reg
*1564 g8287
*1565 g1932
*1566 DFF_373/q_reg
*1567 g1567
*1568 DFF_520/q_reg
*1569 g6468
*1570 g1415
*1571 U2375
*1572 U2292
*1573 DFF_118/q_reg
*1574 g351
*1575 U2142
*1576 DFF_79/q_reg
*1577 g6068
*1578 DFF_402/q_reg
*1579 g1083
*1580 g8286
*1581 g1713
*1582 DFF_174/q_reg
*1583 g7133
*1584 n1815
*1585 g8431
*1586 g1275
*1587 U2447
*1588 U1887
*1589 U1646
*1590 DFF_480/q_reg
*1591 n980
*1592 U1900
*1593 U1622
*1594 n1543
*1595 U1896
*1596 U1888
*1597 n1545
*1598 U1518
*1599 n1306
*1600 U1669
*1601 U1651
*1602 U1649
*1603 U1644
*1604 U2071
*1605 U1648
*1606 U1643
*1607 U2035
*1608 U2037
*1609 U1650
*1610 U2036
*1611 U1645
*1612 U1647
*1613 U2034
*1614 g11443
*1615 n1544
*1616 U2027
*1617 U2017
*1618 U1658
*1619 n1541
*1620 U2445
*1621 g8941
*1622 DFF_44/q_reg
*1623 g1927
*1624 n1540
*1625 n1539
*1626 g1918
*1627 n1538
*1628 n1536
*1629 n1537
*1630 n1535
*1631 g10712
*1632 g1598
*1633 DFF_456/q_reg
*1634 g6481
*1635 g1436
*1636 U2393
*1637 U1635
*1638 DFF_47/q_reg
*1639 n1534
*1640 U2437
*1641 g8921
*1642 g1872
*1643 n1533
*1644 g366
*1645 U2106
*1646 DFF_308/q_reg
*1647 g6096
*1648 DFF_82/q_reg
*1649 g1098
*1650 g284
*1651 DFF_123/q_reg
*1652 g6934
*1653 g170
*1654 U2287
*1655 U2250
*1656 DFF_314/q_reg
*1657 g299
*1658 DFF_511/q_reg
*1659 g6923
*1660 g166
*1661 U2338
*1662 DFF_220/q_reg
*1663 g360
*1664 U2144
*1665 DFF_283/q_reg
*1666 g6088
*1667 DFF_16/q_reg
*1668 g1092
*1669 g266
*1670 U1767
*1671 DFF_485/q_reg
*1672 g6900
*1673 g178
*1674 U2248
*1675 DFF_307/q_reg
*1676 g1571
*1677 DFF_140/q_reg
*1678 g6469
*1679 g1520
*1680 U2288
*1681 DFF_315/q_reg
*1682 g293
*1683 U1836
*1684 DFF_197/q_reg
*1685 g6911
*1686 g135
*1687 U2350
*1688 U2252
*1689 DFF_474/q_reg
*1690 g8435
*1691 g8945
*1692 DFF_271/q_reg
*1693 n1531
*1694 U2422
*1695 n1530
*1696 U2424
*1697 n1529
*1698 U2280
*1699 U2221
*1700 U2216
*1701 U1633
*1702 n1528
*1703 U2212
*1704 U1476
*1705 n1527
*1706 g1822
*1707 n1526
*1708 n1789
*1709 n1525
*1710 n1523
*1711 n1522
*1712 n1783
*1713 DFF_223/q_reg
*1714 n1521
*1715 g4905
*1716 g1853
*1717 g6822
*1718 U2415
*1719 DFF_163/q_reg
*1720 g231
*1721 U2266
*1722 U2007
*1723 U2000
*1724 U1996
*1725 DFF_185/q_reg
*1726 g4940
*1727 U2414
*1728 DFF_112/q_reg
*1729 n1824
*1730 n1518
*1731 g8039
*1732 n1862
*1733 g1861
*1734 DFF_141/q_reg
*1735 g1845
*1736 U2213
*1737 n1517
*1738 U2284
*1739 g6471
*1740 n1752
*1741 n1516
*1742 U1550
*1743 g6045
*1744 DFF_246/q_reg
*1745 g8053
*1746 n1837
*1747 g6824
*1748 U2410
*1749 DFF_125/q_reg
*1750 g1371
*1751 U2265
*1752 DFF_67/q_reg
*1753 g4
*1754 U2409
*1755 U1781
*1756 DFF_29/q_reg
*1757 n1515
*1758 g6656
*1759 n1514
*1760 n1511
*1761 n1513
*1762 n1512
*1763 n1836
*1764 n1750
*1765 n1775
*1766 n1840
*1767 g6215
*1768 g9150
*1769 U2403
*1770 n1510
*1771 U2402
*1772 n1781
*1773 n1509
*1774 n1507
*1775 U2314
*1776 n1508
*1777 g6244
*1778 n1506
*1779 U1561
*1780 g6002
*1781 U2004
*1782 DFF_356/q_reg
*1783 g8060
*1784 n1847
*1785 g5287
*1786 U2397
*1787 n1505
*1788 U2395
*1789 n1504
*1790 U1898
*1791 U1717
*1792 g5083
*1793 DFF_372/q_reg
*1794 g4089
*1795 U2038
*1796 DFF_471/q_reg
*1797 g1703
*1798 n1502
*1799 U1994
*1800 U1556
*1801 n1503
*1802 g8775
*1803 n1854
*1804 g8820
*1805 n1520
*1806 n1501
*1807 n1500
*1808 g4902
*1809 DFF_330/q_reg
*1810 g1848
*1811 n1498
*1812 U1551
*1813 n1499
*1814 U2070
*1815 U2059
*1816 g8043
*1817 n1856
*1818 g9110
*1819 U2388
*1820 n1497
*1821 n1496
*1822 n1495
*1823 g599
*1824 g6757
*1825 U2383
*1826 n1493
*1827 g6439
*1828 n1494
*1829 n1835
*1830 n1492
*1831 g8051
*1832 n1860
*1833 g243
*1834 U2224
*1835 DFF_33/q_reg
*1836 g1633
*1837 U1998
*1838 DFF_199/q_reg
*1839 g6193
*1840 U2377
*1841 n1489
*1842 g11514
*1843 n1490
*1844 n1487
*1845 n1488
*1846 n1769
*1847 n1828
*1848 U2373
*1849 U2002
*1850 U2063
*1851 U2003
*1852 U1999
*1853 U2061
*1854 U2054
*1855 U2066
*1856 U1989
*1857 U1992
*1858 U1975
*1859 U1972
*1860 U1981
*1861 U2331
*1862 U2237
*1863 U2223
*1864 U2329
*1865 U2258
*1866 U2309
*1867 U5
*1868 g8505
*1869 n1486
*1870 n1485
*1871 g617
*1872 g4893
*1873 g635
*1874 n1483
*1875 U1552
*1876 n1484
*1877 g8772
*1878 n1863
*1879 n1482
*1880 U1568
*1881 g646
*1882 DFF_64/q_reg
*1883 g7134
*1884 g6840
*1885 U2364
*1886 DFF_182/q_reg
*1887 g248
*1888 U2263
*1889 DFF_76/q_reg
*1890 n1479
*1891 U1560
*1892 n1480
*1893 g8041
*1894 n1817
*1895 g6820
*1896 U2362
*1897 DFF_303/q_reg
*1898 g1362
*1899 DFF_88/q_reg
*1900 g10583
*1901 g10515
*1902 U2197
*1903 n1477
*1904 U2359
*1905 n1478
*1906 U2022
*1907 U2020
*1908 n1476
*1909 U2356
*1910 n1475
*1911 n1473
*1912 U2021
*1913 n1628
*1914 U1862
*1915 n1474
*1916 U8
*1917 U1984
*1918 U9
*1919 U6
*1920 U1870
*1921 U2107
*1922 g865
*1923 g10664
*1924 U1812
*1925 DFF_319/q_reg
*1926 g8055
*1927 n1472
*1928 U2351
*1929 g6831
*1930 U2295
*1931 DFF_189/q_reg
*1932 n1842
*1933 n1471
*1934 U1543
*1935 g5996
*1936 DFF_397/q_reg
*1937 g8048
*1938 n1748
*1939 g4891
*1940 g631
*1941 DFF_136/q_reg
*1942 g8767
*1943 n1773
*1944 n1470
*1945 n1469
*1946 U1547
*1947 g6042
*1948 DFF_222/q_reg
*1949 g8059
*1950 n1859
*1951 n1468
*1952 U1559
*1953 g6000
*1954 DFF_500/q_reg
*1955 g7843
*1956 n1858
*1957 g8173
*1958 U2348
*1959 n1814
*1960 U1963
*1961 U1959
*1962 U1955
*1963 U1952
*1964 U1947
*1965 U1944
*1966 n1467
*1967 n1466
*1968 n1465
*1969 U1521
*1970 n1463
*1971 g1801
*1972 U1964
*1973 U1962
*1974 U1614
*1975 DFF_104/q_reg
*1976 g1796
*1977 U2147
*1978 U1960
*1979 U1958
*1980 DFF_324/q_reg
*1981 n1462
*1982 g8045
*1983 n1852
*1984 CTS_ideal_clock1_CTO_delay271
*1985 NBUFFX2_RVT_G1B1I61
*1986 CTS_ideal_clock1_CTO_delay27
*1987 g1636
*1988 U1990
*1989 DFF_404/q_reg
*1990 n1460
*1991 U1541
*1992 n1461
*1993 g8766
*1994 n1458
*1995 U1555
*1996 n1459
*1997 g8052
*1998 n1457
*1999 U1563
*2000 g6049
*2001 CTS_ideal_clock1_CTO_delay291
*2002 CTS_ideal_clock1_CTO_delay29
*2003 g8049
*2004 n1849
*2005 g6333
*2006 U2337
*2007 DFF_66/q_reg
*2008 g197
*2009 U2260
*2010 DFF_424/q_reg
*2011 g6827
*2012 U2336
*2013 DFF_327/q_reg
*2014 g219
*2015 g6826
*2016 U2335
*2017 g225
*2018 DFF_132/q_reg
*2019 g6216
*2020 n1456
*2021 U1545
*2022 g6015
*2023 DFF_446/q_reg
*2024 CTS_ideal_clock1_CTO_delay181
*2025 CTS_ideal_clock1_CTO_delay18
*2026 g8054
*2027 n1851
*2028 n1455
*2029 g8042
*2030 g192
*2031 U2282
*2032 DFF_284/q_reg
*2033 n1454
*2034 U1558
*2035 g6038
*2036 DFF_244/q_reg
*2037 g8044
*2038 n1850
*2039 g9721
*2040 n1453
*2041 CTS_ideal_clock1_CTO_delay201
*2042 CTS_ideal_clock1_CTO_delay20
*2043 n1452
*2044 n1451
*2045 n1802
*2046 n1670
*2047 g722
*2048 g611
*2049 g6833
*2050 U2311
*2051 DFF_396/q_reg
*2052 g186
*2053 DFF_105/q_reg
*2054 g6759
*2055 CTS_ideal_clock1_CTO_delay221
*2056 CTS_ideal_clock1_CTO_delay22
*2057 g8384
*2058 n1450
*2059 n1449
*2060 g1814
*2061 n1448
*2062 g1840
*2063 n1447
*2064 n1481
*2065 g650
*2066 DFF_403/q_reg
*2067 g7137
*2068 g207
*2069 U2264
*2070 DFF_5/q_reg
*2071 g6234
*2072 g1
*2073 U2293
*2074 U1832
*2075 DFF_528/q_reg
*2076 n1446
*2077 g6679
*2078 n1445
*2079 n1442
*2080 n1444
*2081 n1443
*2082 n1866
*2083 n1864
*2084 g6224
*2085 n1441
*2086 U1554
*2087 g6026
*2088 DFF_193/q_reg
*2089 g8050
*2090 n1848
*2091 g6205
*2092 CTS_ideal_clock1_CTO_delay161
*2093 NBUFFX2_RVT_G1B1I2
*2094 CTS_ideal_clock1_CTO_delay16
*2095 g3418
*2096 U2285
*2097 n1440
*2098 n1439
*2099 g1864
*2100 DFF_18/q_reg
*2101 g6795
*2102 g6838
*2103 DFF_153/q_reg
*2104 n1437
*2105 U1548
*2106 n1438
*2107 U2008
*2108 g8040
*2109 n1857
*2110 g6332
*2111 U2279
*2112 g1374
*2113 DFF_484/q_reg
*2114 g3407
*2115 U2278
*2116 g6179
*2117 U2277
*2118 DFF_473/q_reg
*2119 g6163
*2120 U2276
*2121 DFF_452/q_reg
*2122 g1394
*2123 U1985
*2124 DFF_289/q_reg
*2125 n1436
*2126 U2268
*2127 U2261
*2128 n1434
*2129 U2267
*2130 g6331
*2131 U2275
*2132 n1435
*2133 U2262
*2134 g201
*2135 DFF_400/q_reg
*2136 g4890
*2137 g630
*2138 g6334
*2139 U2273
*2140 g1389
*2141 g6839
*2142 U2272
*2143 g1397
*2144 g5755
*2145 U2271
*2146 n1433
*2147 U2270
*2148 n1431
*2149 U2269
*2150 n1432
*2151 n1430
*2152 n1827
*2153 n1429
*2154 n1427
*2155 n1426
*2156 n1428
*2157 g1377
*2158 U2226
*2159 g237
*2160 U2238
*2161 g213
*2162 U2200
*2163 DFF_331/q_reg
*2164 g1380
*2165 U2227
*2166 DFF_487/q_reg
*2167 g1365
*2168 U2243
*2169 DFF_142/q_reg
*2170 g1368
*2171 U2241
*2172 g1400
*2173 U2240
*2174 g1383
*2175 U2259
*2176 g1386
*2177 g6832
*2178 g9555
*2179 n1425
*2180 n1424
*2181 n1423
*2182 U1549
*2183 g6035
*2184 DFF_443/q_reg
*2185 g8047
*2186 n1774
*2187 n1421
*2188 U1553
*2189 n1422
*2190 g8046
*2191 g123
*2192 U2253
*2193 U1787
*2194 DFF_4/q_reg
*2195 n1420
*2196 g7032
*2197 n1419
*2198 n1416
*2199 n1418
*2200 n1417
*2201 g6786
*2202 n1821
*2203 DFF_380/q_reg
*2204 g6180
*2205 U2247
*2206 n1414
*2207 g5770
*2208 n1415
*2209 g6834
*2210 g6823
*2211 g6841
*2212 n1412
*2213 U1997
*2214 n1413
*2215 g8768
*2216 n1853
*2217 g6821
*2218 g9272
*2219 n1411
*2220 U2236
*2221 n1410
*2222 g1828
*2223 n1409
*2224 n1408
*2225 g826
*2226 DFF_248/q_reg
*2227 n1406
*2228 U1530
*2229 n1407
*2230 g8245
*2231 g4903
*2232 g1849
*2233 g6198
*2234 n1404
*2235 U1973
*2236 n1405
*2237 g8765
*2238 n1861
*2239 g6830
*2240 g6828
*2241 n1402
*2242 U1557
*2243 n1403
*2244 U1976
*2245 g8769
*2246 n1855
*2247 g6819
*2248 g9266
*2249 n1401
*2250 n1400
*2251 n1399
*2252 n1398
*2253 n1397
*2254 g1945
*2255 n1524
*2256 n1396
*2257 g1834
*2258 g1936
*2259 n1395
*2260 g6829
*2261 n1865
*2262 g8244
*2263 n1394
*2264 U2091
*2265 U2090
*2266 g6155
*2267 n1393
*2268 n1392
*2269 n1391
*2270 n1799
*2271 U2170
*2272 U1667
*2273 DFF_37/q_reg
*2274 n1390
*2275 U2169
*2276 U1576
*2277 n1389
*2278 U1724
*2279 g802
*2280 DFF_309/q_reg
*2281 DFF_389/q_reg
*2282 n1386
*2283 U2042
*2284 n1387
*2285 g7709
*2286 n1822
*2287 n1384
*2288 U1525
*2289 n1385
*2290 g6525
*2291 n1816
*2292 n1383
*2293 n1845
*2294 g5543
*2295 g810
*2296 U2051
*2297 DFF_433/q_reg
*2298 DFF_393/q_reg
*2299 n1388
*2300 U2050
*2301 n1382
*2302 g6733
*2303 n1843
*2304 g853
*2305 U2179
*2306 U1871
*2307 CTS_ideal_clock1_CTO_delay112
*2308 CTS_ideal_clock1_CTO_delay111
*2309 g11310
*2310 DFF_148/q_reg
*2311 g962
*2312 U1495
*2313 CTS_ideal_clock1_CTO_delay121
*2314 NBUFFX2_RVT_G1B1I4
*2315 CTS_ideal_clock1_CTO_delay12
*2316 g857
*2317 U2178
*2318 U1873
*2319 g11312
*2320 DFF_181/q_reg
*2321 g965
*2322 U1589
*2323 g841
*2324 U2177
*2325 DFF_412/q_reg
*2326 g11305
*2327 DFF_317/q_reg
*2328 g953
*2329 U1777
*2330 CTS_ideal_clock1_CTO_delay131
*2331 NBUFFX2_RVT_G1B1I25
*2332 CTS_ideal_clock1_CTO_delay13
*2333 g849
*2334 U2176
*2335 DFF_343/q_reg
*2336 g11308
*2337 DFF_106/q_reg
*2338 g959
*2339 U1497
*2340 g829
*2341 U2175
*2342 g11298
*2343 DFF_312/q_reg
*2344 g944
*2345 U1802
*2346 g845
*2347 U2174
*2348 g11306