*SPEF "1481-1998"
*DESIGN "s35932"
*DATE "Wed Mar  6 02:03:15 2019"
*VENDOR "Synopsys, Inc."
*PROGRAM "icc_shell"
*VERSION "L-2016.03-SP5-1"
*DESIGN_FLOW "PIN_CAP NONE"
*DIVIDER /
*DELIMITER :
*BUS_DELIMITER [ ]
*T_UNIT 1 NS
*C_UNIT 1 FF
*R_UNIT 1 OHM
*L_UNIT 1 HENRY

*NAME_MAP
*1 DATA_0_10
*2 DATA_0_1
*3 DATA_0_0
*4 CK
*5 VDD
*6 GND
*7 VDDa
*8 VSS
*9 DATA_0_18
*10 DATA_0_17
*11 DATA_0_16
*12 DATA_0_15
*13 DATA_0_14
*14 DATA_0_13
*15 DATA_0_12
*16 DATA_0_11
*17 DATA_0_25
*18 DATA_0_24
*19 DATA_0_23
*20 DATA_0_22
*21 DATA_0_21
*22 DATA_0_20
*23 DATA_0_2
*24 DATA_0_19
*25 DATA_0_4
*26 DATA_0_31
*27 DATA_0_30
*28 DATA_0_3
*29 DATA_0_29
*30 DATA_0_28
*31 DATA_0_27
*32 DATA_0_26
*33 TM1
*34 TM0
*35 RESET
*36 DATA_0_9
*37 DATA_0_8
*38 DATA_0_7
*39 DATA_0_6
*40 DATA_0_5
*41 CRC_OUT_1_15
*42 CRC_OUT_1_14
*43 CRC_OUT_1_13
*44 CRC_OUT_1_12
*45 CRC_OUT_1_11
*46 CRC_OUT_1_10
*47 CRC_OUT_1_1
*48 CRC_OUT_1_0
*49 CRC_OUT_1_22
*50 CRC_OUT_1_21
*51 CRC_OUT_1_20
*52 CRC_OUT_1_2
*53 CRC_OUT_1_19
*54 CRC_OUT_1_18
*55 CRC_OUT_1_17
*56 CRC_OUT_1_16
*57 CRC_OUT_1_3
*58 CRC_OUT_1_29
*59 CRC_OUT_1_28
*60 CRC_OUT_1_27
*61 CRC_OUT_1_26
*62 CRC_OUT_1_25
*63 CRC_OUT_1_24
*64 CRC_OUT_1_23
*65 CRC_OUT_1_9
*66 CRC_OUT_1_8
*67 CRC_OUT_1_7
*68 CRC_OUT_1_6
*69 CRC_OUT_1_5
*70 CRC_OUT_1_4
*71 CRC_OUT_1_31
*72 CRC_OUT_1_30
*73 CRC_OUT_2_15
*74 CRC_OUT_2_14
*75 CRC_OUT_2_13
*76 CRC_OUT_2_12
*77 CRC_OUT_2_11
*78 CRC_OUT_2_10
*79 CRC_OUT_2_1
*80 CRC_OUT_2_0
*81 CRC_OUT_2_22
*82 CRC_OUT_2_21
*83 CRC_OUT_2_20
*84 CRC_OUT_2_2
*85 CRC_OUT_2_19
*86 CRC_OUT_2_18
*87 CRC_OUT_2_17
*88 CRC_OUT_2_16
*89 CRC_OUT_2_3
*90 CRC_OUT_2_29
*91 CRC_OUT_2_28
*92 CRC_OUT_2_27
*93 CRC_OUT_2_26
*94 CRC_OUT_2_25
*95 CRC_OUT_2_24
*96 CRC_OUT_2_23
*97 CRC_OUT_2_9
*98 CRC_OUT_2_8
*99 CRC_OUT_2_7
*100 CRC_OUT_2_6
*101 CRC_OUT_2_5
*102 CRC_OUT_2_4
*103 CRC_OUT_2_31
*104 CRC_OUT_2_30
*105 CRC_OUT_3_15
*106 CRC_OUT_3_14
*107 CRC_OUT_3_13
*108 CRC_OUT_3_12
*109 CRC_OUT_3_11
*110 CRC_OUT_3_10
*111 CRC_OUT_3_1
*112 CRC_OUT_3_0
*113 CRC_OUT_3_22
*114 CRC_OUT_3_21
*115 CRC_OUT_3_20
*116 CRC_OUT_3_2
*117 CRC_OUT_3_19
*118 CRC_OUT_3_18
*119 CRC_OUT_3_17
*120 CRC_OUT_3_16
*121 CRC_OUT_3_3
*122 CRC_OUT_3_29
*123 CRC_OUT_3_28
*124 CRC_OUT_3_27
*125 CRC_OUT_3_26
*126 CRC_OUT_3_25
*127 CRC_OUT_3_24
*128 CRC_OUT_3_23
*129 CRC_OUT_3_9
*130 CRC_OUT_3_8
*131 CRC_OUT_3_7
*132 CRC_OUT_3_6
*133 CRC_OUT_3_5
*134 CRC_OUT_3_4
*135 CRC_OUT_3_31
*136 CRC_OUT_3_30
*137 CRC_OUT_4_15
*138 CRC_OUT_4_14
*139 CRC_OUT_4_13
*140 CRC_OUT_4_12
*141 CRC_OUT_4_11
*142 CRC_OUT_4_10
*143 CRC_OUT_4_1
*144 CRC_OUT_4_0
*145 CRC_OUT_4_22
*146 CRC_OUT_4_21
*147 CRC_OUT_4_20
*148 CRC_OUT_4_2
*149 CRC_OUT_4_19
*150 CRC_OUT_4_18
*151 CRC_OUT_4_17
*152 CRC_OUT_4_16
*153 CRC_OUT_4_3
*154 CRC_OUT_4_29
*155 CRC_OUT_4_28
*156 CRC_OUT_4_27
*157 CRC_OUT_4_26
*158 CRC_OUT_4_25
*159 CRC_OUT_4_24
*160 CRC_OUT_4_23
*161 CRC_OUT_4_9
*162 CRC_OUT_4_8
*163 CRC_OUT_4_7
*164 CRC_OUT_4_6
*165 CRC_OUT_4_5
*166 CRC_OUT_4_4
*167 CRC_OUT_4_31
*168 CRC_OUT_4_30
*169 CRC_OUT_5_15
*170 CRC_OUT_5_14
*171 CRC_OUT_5_13
*172 CRC_OUT_5_12
*173 CRC_OUT_5_11
*174 CRC_OUT_5_10
*175 CRC_OUT_5_1
*176 CRC_OUT_5_0
*177 CRC_OUT_5_22
*178 CRC_OUT_5_21
*179 CRC_OUT_5_20
*180 CRC_OUT_5_2
*181 CRC_OUT_5_19
*182 CRC_OUT_5_18
*183 CRC_OUT_5_17
*184 CRC_OUT_5_16
*185 CRC_OUT_5_3
*186 CRC_OUT_5_29
*187 CRC_OUT_5_28
*188 CRC_OUT_5_27
*189 CRC_OUT_5_26
*190 CRC_OUT_5_25
*191 CRC_OUT_5_24
*192 CRC_OUT_5_23
*193 CRC_OUT_5_9
*194 CRC_OUT_5_8
*195 CRC_OUT_5_7
*196 CRC_OUT_5_6
*197 CRC_OUT_5_5
*198 CRC_OUT_5_4
*199 CRC_OUT_5_31
*200 CRC_OUT_5_30
*201 CRC_OUT_6_15
*202 CRC_OUT_6_14
*203 CRC_OUT_6_13
*204 CRC_OUT_6_12
*205 CRC_OUT_6_11
*206 CRC_OUT_6_10
*207 CRC_OUT_6_1
*208 CRC_OUT_6_0
*209 CRC_OUT_6_22
*210 CRC_OUT_6_21
*211 CRC_OUT_6_20
*212 CRC_OUT_6_2
*213 CRC_OUT_6_19
*214 CRC_OUT_6_18
*215 CRC_OUT_6_17
*216 CRC_OUT_6_16
*217 CRC_OUT_6_3
*218 CRC_OUT_6_29
*219 CRC_OUT_6_28
*220 CRC_OUT_6_27
*221 CRC_OUT_6_26
*222 CRC_OUT_6_25
*223 CRC_OUT_6_24
*224 CRC_OUT_6_23
*225 CRC_OUT_6_9
*226 CRC_OUT_6_8
*227 CRC_OUT_6_7
*228 CRC_OUT_6_6
*229 CRC_OUT_6_5
*230 CRC_OUT_6_4
*231 CRC_OUT_6_31
*232 CRC_OUT_6_30
*233 CRC_OUT_7_15
*234 CRC_OUT_7_14
*235 CRC_OUT_7_13
*236 CRC_OUT_7_12
*237 CRC_OUT_7_11
*238 CRC_OUT_7_10
*239 CRC_OUT_7_1
*240 CRC_OUT_7_0
*241 CRC_OUT_7_22
*242 CRC_OUT_7_21
*243 CRC_OUT_7_20
*244 CRC_OUT_7_2
*245 CRC_OUT_7_19
*246 CRC_OUT_7_18
*247 CRC_OUT_7_17
*248 CRC_OUT_7_16
*249 CRC_OUT_7_3
*250 CRC_OUT_7_29
*251 CRC_OUT_7_28
*252 CRC_OUT_7_27
*253 CRC_OUT_7_26
*254 CRC_OUT_7_25
*255 CRC_OUT_7_24
*256 CRC_OUT_7_23
*257 CRC_OUT_7_9
*258 CRC_OUT_7_8
*259 CRC_OUT_7_7
*260 CRC_OUT_7_6
*261 CRC_OUT_7_5
*262 CRC_OUT_7_4
*263 CRC_OUT_7_31
*264 CRC_OUT_7_30
*265 CRC_OUT_8_15
*266 CRC_OUT_8_14
*267 CRC_OUT_8_13
*268 CRC_OUT_8_12
*269 CRC_OUT_8_11
*270 CRC_OUT_8_10
*271 CRC_OUT_8_1
*272 CRC_OUT_8_0
*273 CRC_OUT_8_22
*274 CRC_OUT_8_21
*275 CRC_OUT_8_20
*276 CRC_OUT_8_2
*277 CRC_OUT_8_19
*278 CRC_OUT_8_18
*279 CRC_OUT_8_17
*280 CRC_OUT_8_16
*281 CRC_OUT_8_3
*282 CRC_OUT_8_29
*283 CRC_OUT_8_28
*284 CRC_OUT_8_27
*285 CRC_OUT_8_26
*286 CRC_OUT_8_25
*287 CRC_OUT_8_24
*288 CRC_OUT_8_23
*289 CRC_OUT_8_9
*290 CRC_OUT_8_8
*291 CRC_OUT_8_7
*292 CRC_OUT_8_6
*293 CRC_OUT_8_5
*294 CRC_OUT_8_4
*295 CRC_OUT_8_31
*296 CRC_OUT_8_30
*297 CRC_OUT_9_15
*298 CRC_OUT_9_14
*299 CRC_OUT_9_13
*300 CRC_OUT_9_12
*301 CRC_OUT_9_11
*302 CRC_OUT_9_10
*303 CRC_OUT_9_1
*304 CRC_OUT_9_0
*305 CRC_OUT_9_22
*306 CRC_OUT_9_21
*307 CRC_OUT_9_20
*308 CRC_OUT_9_2
*309 CRC_OUT_9_19
*310 CRC_OUT_9_18
*311 CRC_OUT_9_17
*312 CRC_OUT_9_16
*313 CRC_OUT_9_3
*314 CRC_OUT_9_29
*315 CRC_OUT_9_28
*316 CRC_OUT_9_27
*317 CRC_OUT_9_26
*318 CRC_OUT_9_25
*319 CRC_OUT_9_24
*320 CRC_OUT_9_23
*321 CRC_OUT_9_9
*322 CRC_OUT_9_8
*323 CRC_OUT_9_7
*324 CRC_OUT_9_6
*325 CRC_OUT_9_5
*326 CRC_OUT_9_4
*327 CRC_OUT_9_31
*328 CRC_OUT_9_30
*329 DATA_9_15
*330 DATA_9_14
*331 DATA_9_13
*332 DATA_9_12
*333 DATA_9_11
*334 DATA_9_10
*335 DATA_9_1
*336 DATA_9_0
*337 DATA_9_22
*338 DATA_9_21
*339 DATA_9_20
*340 DATA_9_2
*341 DATA_9_19
*342 DATA_9_18
*343 DATA_9_17
*344 DATA_9_16
*345 DATA_9_3
*346 DATA_9_29
*347 DATA_9_28
*348 DATA_9_27
*349 DATA_9_26
*350 DATA_9_25
*351 DATA_9_24
*352 DATA_9_23
*353 DATA_9_9
*354 DATA_9_8
*355 DATA_9_7
*356 DATA_9_6
*357 DATA_9_5
*358 DATA_9_4
*359 DATA_9_31
*360 DATA_9_30
*361 CTS_ideal_clock1_CTO_delay1431
*362 CTS_ideal_clock1_CTO_delay27
*363 CTS_ideal_clock1_CTO_delay143
*364 CTS_ideal_clock1_CTO_delay1461
*365 CTS_ideal_clock1_CTO_delay37
*366 CTS_ideal_clock1_CTO_delay146
*367 CTS_ideal_clock1_CTO_delay1481
*368 CTS_ideal_clock1_CTO_delay45
*369 CTS_ideal_clock1_CTO_delay148
*370 CTS_ideal_clock1_CTO_delay1512
*371 CTS_ideal_clock1_CTO_delay35
*372 CTS_ideal_clock1_CTO_delay1511
*373 CTS_ideal_clock1_CTO_delay1541
*374 DFF_1495/q_reg
*375 CTS_ideal_clock1_CTO_delay154
*376 CTS_ideal_clock1_CTO_delay1281
*377 CTS_ideal_clock1_CTO_delay25
*378 CTS_ideal_clock1_CTO_delay128
*379 CTS_ideal_clock1_CTO_delay1312
*380 CTS_ideal_clock1_CTO_delay13
*381 CTS_ideal_clock1_CTO_delay1311
*382 CTS_ideal_clock1_CTO_delay1341
*383 CTS_ideal_clock1_CTO_delay47
*384 CTS_ideal_clock1_CTO_delay134
*385 CTS_ideal_clock1_CTO_delay1361
*386 CTS_ideal_clock1_CTO_delay43
*387 CTS_ideal_clock1_CTO_delay136
*388 CTS_ideal_clock1_CTO_delay1391
*389 CTS_ideal_clock1_CTO_delay23
*390 CTS_ideal_clock1_CTO_delay139
*391 CTS_ideal_clock1_CTO_delay1412
*392 CTS_ideal_clock1_CTO_delay59
*393 CTS_ideal_clock1_CTO_delay1411
*394 CTS_ideal_clock1_CTO_delay1012
*395 CTS_ideal_clock1_CTO_delay39
*396 CTS_ideal_clock1_CTO_delay1011
*397 CTS_ideal_clock1_CTO_delay1041
*398 CTS_ideal_clock1_CTO_delay15
*399 CTS_ideal_clock1_CTO_delay104
*400 CTS_ideal_clock1_CTO_delay1071
*401 CTS_ideal_clock1_CTO_delay211
*402 CTS_ideal_clock1_CTO_delay107
*403 CTS_ideal_clock1_CTO_delay1101
*404 CTS_ideal_clock1_CTO_delay311
*405 CTS_ideal_clock1_CTO_delay110
*406 CTS_ideal_clock1_CTO_delay1131
*407 CTS_ideal_clock1_CTO_delay57
*408 CTS_ideal_clock1_CTO_delay113
*409 CTS_ideal_clock1_CTO_delay1161
*410 CTS_ideal_clock1_CTO_delay29
*411 CTS_ideal_clock1_CTO_delay116
*412 CTS_ideal_clock1_CTO_delay1191
*413 CTS_ideal_clock1_CTO_delay33
*414 CTS_ideal_clock1_CTO_delay119
*415 CTS_ideal_clock1_CTO_delay1221
*416 CTS_ideal_clock1_CTO_delay411
*417 CTS_ideal_clock1_CTO_delay122
*418 CTS_ideal_clock1_CTO_delay1251
*419 CTS_ideal_clock1_CTO_delay111
*420 CTS_ideal_clock1_CTO_delay125
*421 CTS_ideal_clock1_CTO_delay871
*422 CTS_ideal_clock1_CTO_delay17
*423 CTS_ideal_clock1_CTO_delay87
*424 CTS_ideal_clock1_CTO_delay901
*425 NBUFFX2_RVT_G1B1I24_1
*426 CTS_ideal_clock1_CTO_delay90
*427 CTS_ideal_clock1_CTO_delay921
*428 CTS_ideal_clock1_CTO_delay19
*429 CTS_ideal_clock1_CTO_delay92
*430 CTS_ideal_clock1_CTO_delay951
*431 CTS_ideal_clock1_CTO_delay5
*432 CTS_ideal_clock1_CTO_delay95
*433 CTS_ideal_clock1_CTO_delay981
*434 CTS_ideal_clock1_CTO_delay9
*435 CTS_ideal_clock1_CTO_delay98
*436 CTS_ideal_clock1_CTO_delay821
*437 CTS_ideal_clock1_CTO_delay7
*438 CTS_ideal_clock1_CTO_delay82
*439 CTS_ideal_clock1_CTO_delay851
*440 NBUFFX2_RVT_G1B1I35
*441 CTS_ideal_clock1_CTO_delay85
*442 CTS_ideal_clock1_CTO_delay712
*443 DFF_181/q_reg
*444 CTS_ideal_clock1_CTO_delay711
*445 CTS_ideal_clock1_CTO_delay731
*446 DFF_1645/q_reg
*447 CTS_ideal_clock1_CTO_delay73
*448 CTS_ideal_clock1_CTO_delay751
*449 DFF_324/q_reg
*450 CTS_ideal_clock1_CTO_delay75
*451 CTS_ideal_clock1_CTO_delay771
*452 NBUFFX2_RVT_G1B1I30
*453 CTS_ideal_clock1_CTO_delay77
*454 CTS_ideal_clock1_CTO_delay801
*455 DFF_152/q_reg
*456 CTS_ideal_clock1_CTO_delay80
*457 CTS_ideal_clock1_CTO_delay671
*458 DFF_944/q_reg
*459 CTS_ideal_clock1_CTO_delay67
*460 CTS_ideal_clock1_CTO_delay691
*461 DFF_1247/q_reg
*462 CTS_ideal_clock1_CTO_delay69
*463 CTS_ideal_clock1_CTO_delay651
*464 DFF_1148/q_reg
*465 CTS_ideal_clock1_CTO_delay65
*466 CTS_ideal_clock1_CTO_delay531
*467 DFF_167/q_reg
*468 CTS_ideal_clock1_CTO_delay53
*469 CTS_ideal_clock1_CTO_delay551
*470 DFF_1610/q_reg
*471 CTS_ideal_clock1_CTO_delay55
*472 CTS_ideal_clock1_CTO_delay571
*473 DFF_76/q_reg
*474 CTS_ideal_clock1_CTO_delay591
*475 DFF_743/q_reg
*476 CTS_ideal_clock1_CTO_delay612
*477 DFF_192/q_reg
*478 CTS_ideal_clock1_CTO_delay611
*479 CTS_ideal_clock1_CTO_delay631
*480 DFF_454/q_reg
*481 CTS_ideal_clock1_CTO_delay63
*482 CTS_ideal_clock1_CTO_delay512
*483 DFF_877/q_reg
*484 CTS_ideal_clock1_CTO_delay511
*485 CTS_ideal_clock1_CTO_delay471
*486 DFF_414/q_reg
*487 CTS_ideal_clock1_CTO_delay491
*488 CTS_ideal_clock1_CTO_delay49
*489 CTS_ideal_clock1_CTO_delay412
*490 DFF_645/q_reg
*491 CTS_ideal_clock1_CTO_delay431
*492 DFF_92/q_reg
*493 CTS_ideal_clock1_CTO_delay451
*494 DFF_456/q_reg
*495 CTS_ideal_clock1_CTO_delay391
*496 DFF_365/q_reg
*497 CTS_ideal_clock1_CTO_delay351
*498 DFF_1487/q_reg
*499 CTS_ideal_clock1_CTO_delay371
*500 DFF_1174/q_reg
*501 CTS_ideal_clock1_CTO_delay312
*502 DFF_208/q_reg
*503 CTS_ideal_clock1_CTO_delay331
*504 DFF_708/q_reg
*505 CTS_ideal_clock1_CTO_delay112
*506 DFF_1659/q_reg
*507 CTS_ideal_clock1_CTO_delay131
*508 DFF_1500/q_reg
*509 CTS_ideal_clock1_CTO_delay151
*510 DFF_1209/q_reg
*511 CTS_ideal_clock1_CTO_delay171
*512 DFF_988/q_reg
*513 CTS_ideal_clock1_CTO_delay191
*514 DFF_745/q_reg
*515 CTS_ideal_clock1_CTO_delay212
*516 DFF_934/q_reg
*517 CTS_ideal_clock1_CTO_delay231
*518 DFF_607/q_reg
*519 CTS_ideal_clock1_CTO_delay251
*520 DFF_1401/q_reg
*521 CTS_ideal_clock1_CTO_delay271
*522 DFF_1280/q_reg
*523 CTS_ideal_clock1_CTO_delay291
*524 DFF_182/q_reg
*525 CK_G1B1I391
*526 DFF_761/q_reg
*527 DFF_676/q_reg
*528 DFF_762/q_reg
*529 DFF_709/q_reg
*530 DFF_706/q_reg
*531 DFF_673/q_reg
*532 DFF_674/q_reg
*533 DFF_642/q_reg
*534 DFF_763/q_reg
*535 DFF_644/q_reg
*536 DFF_646/q_reg
*537 DFF_764/q_reg
*538 DFF_710/q_reg
*539 DFF_678/q_reg
*540 DFF_641/q_reg
*541 DFF_610/q_reg
*542 DFF_581/q_reg
*543 DFF_1144/q_reg
*544 DFF_707/q_reg
*545 DFF_760/q_reg
*546 DFF_765/q_reg
*547 DFF_705/q_reg
*548 DFF_609/q_reg
*549 DFF_611/q_reg
*550 DFF_643/q_reg
*551 DFF_612/q_reg
*552 DFF_614/q_reg
*553 DFF_580/q_reg
*554 DFF_675/q_reg
*555 DFF_766/q_reg
*556 DFF_767/q_reg
*557 DFF_740/q_reg
*558 DFF_579/q_reg
*559 DFF_672/q_reg
*560 DFF_704/q_reg
*561 DFF_727/q_reg
*562 DFF_695/q_reg
*563 DFF_640/q_reg
*564 DFF_608/q_reg
*565 DFF_663/q_reg
*566 DFF_730/q_reg
*567 DFF_741/q_reg
*568 DFF_698/q_reg
*569 DFF_729/q_reg
*570 NBUFFX2_RVT_G1B1I391
*571 CK_G1B1I401
*572 DFF_1452/q_reg
*573 DFF_1484/q_reg
*574 DFF_1444/q_reg
*575 DFF_1521/q_reg
*576 DFF_1522/q_reg
*577 DFF_1350/q_reg
*578 DFF_1358/q_reg
*579 DFF_1357/q_reg
*580 DFF_1531/q_reg
*581 DFF_1381/q_reg
*582 DFF_1534/q_reg
*583 DFF_1348/q_reg
*584 DFF_1380/q_reg
*585 DFF_1349/q_reg
*586 DFF_1475/q_reg
*587 DFF_1347/q_reg
*588 DFF_1409/q_reg
*589 DFF_1473/q_reg
*590 DFF_1533/q_reg
*591 DFF_1532/q_reg
*592 DFF_1443/q_reg
*593 DFF_1377/q_reg
*594 DFF_1346/q_reg
*595 DFF_1379/q_reg
*596 DFF_1345/q_reg
*597 DFF_1411/q_reg
*598 DFF_1373/q_reg
*599 DFF_1505/q_reg
*600 DFF_1474/q_reg
*601 DFF_1371/q_reg
*602 DFF_1485/q_reg
*603 DFF_1515/q_reg
*604 DFF_1501/q_reg
*605 DFF_1507/q_reg
*606 DFF_1455/q_reg
*607 DFF_1372/q_reg
*608 DFF_1469/q_reg
*609 DFF_1423/q_reg
*610 DFF_1506/q_reg
*611 DFF_1257/q_reg
*612 DFF_1391/q_reg
*613 DFF_1405/q_reg
*614 DFF_1437/q_reg
*615 DFF_1442/q_reg
*616 DFF_1491/q_reg
*617 DFF_1459/q_reg
*618 DFF_1378/q_reg
*619 DFF_1410/q_reg
*620 NBUFFX2_RVT_G1B1I401
*621 CK_G1B1I281
*622 DFF_314/q_reg
*623 DFF_250/q_reg
*624 DFF_115/q_reg
*625 DFF_282/q_reg
*626 DFF_83/q_reg
*627 DFF_218/q_reg
*628 DFF_267/q_reg
*629 DFF_281/q_reg
*630 DFF_346/q_reg
*631 DFF_290/q_reg
*632 DFF_217/q_reg
*633 DFF_145/q_reg
*634 DFF_216/q_reg
*635 DFF_81/q_reg
*636 DFF_113/q_reg
*637 DFF_289/q_reg
*638 DFF_313/q_reg
*639 DFF_174/q_reg
*640 DFF_345/q_reg
*641 DFF_175/q_reg
*642 DFF_312/q_reg
*643 DFF_249/q_reg
*644 DFF_173/q_reg
*645 DFF_112/q_reg
*646 DFF_93/q_reg
*647 DFF_144/q_reg
*648 DFF_162/q_reg
*649 DFF_48/q_reg
*650 DFF_357/q_reg
*651 DFF_49/q_reg
*652 DFF_356/q_reg
*653 DFF_62/q_reg
*654 DFF_16/q_reg
*655 DFF_80/q_reg
*656 DFF_51/q_reg
*657 DFF_125/q_reg
*658 DFF_61/q_reg
*659 DFF_247/q_reg
*660 DFF_172/q_reg
*661 DFF_248/q_reg
*662 DFF_157/q_reg
*663 DFF_280/q_reg
*664 DFF_161/q_reg
*665 DFF_29/q_reg
*666 DFF_235/q_reg
*667 DFF_358/q_reg
*668 DFF_147/q_reg
*669 DFF_163/q_reg
*670 DFF_215/q_reg
*671 DFF_156/q_reg
*672 DFF_146/q_reg
*673 DFF_279/q_reg
*674 DFF_344/q_reg
*675 NBUFFX2_RVT_G1B1I281
*676 CTS_ideal_clock1_CTO_delay11
*677 NBUFFX2_RVT_G1B1I34
*678 CTS_ideal_clock1_CTO_delay1
*679 CTS_ideal_clock1_CTO_delay51
*680 DFF_1420/q_reg
*681 CTS_ideal_clock1_CTO_delay71
*682 DFF_1196/q_reg
*683 CTS_ideal_clock1_CTO_delay91
*684 DFF_359/q_reg
*685 CK_G1B1I321
*686 DFF_867/q_reg
*687 DFF_1488/q_reg
*688 DFF_1716/q_reg
*689 DFF_1517/q_reg
*690 DFF_1642/q_reg
*691 DFF_835/q_reg
*692 DFF_1643/q_reg
*693 DFF_1518/q_reg
*694 DFF_1519/q_reg
*695 DFF_1674/q_reg
*696 DFF_1456/q_reg
*697 DFF_1675/q_reg
*698 DFF_1611/q_reg
*699 DFF_868/q_reg
*700 DFF_1424/q_reg
*701 DFF_1717/q_reg
*702 DFF_836/q_reg
*703 DFF_1715/q_reg
*704 DFF_1489/q_reg
*705 DFF_1579/q_reg
*706 DFF_1673/q_reg
*707 DFF_1718/q_reg
*708 DFF_919/q_reg
*709 DFF_1392/q_reg
*710 DFF_1676/q_reg
*711 DFF_887/q_reg
*712 DFF_1457/q_reg
*713 DFF_1612/q_reg
*714 DFF_935/q_reg
*715 DFF_855/q_reg
*716 DFF_1425/q_reg
*717 DFF_918/q_reg
*718 DFF_823/q_reg
*719 DFF_1644/q_reg
*720 DFF_1393/q_reg
*721 DFF_886/q_reg
*722 DFF_1464/q_reg
*723 DFF_854/q_reg
*724 DFF_1432/q_reg
*725 DFF_1360/q_reg
*726 DFF_1433/q_reg
*727 DFF_1361/q_reg
*728 DFF_1465/q_reg
*729 DFF_1497/q_reg
*730 DFF_1511/q_reg
*731 NBUFFX2_RVT_G1B1I321
*732 CK_G1B1I331
*733 DFF_851/q_reg
*734 DFF_862/q_reg
*735 DFF_796/q_reg
*736 DFF_785/q_reg
*737 DFF_819/q_reg
*738 DFF_787/q_reg
*739 DFF_786/q_reg
*740 DFF_830/q_reg
*741 DFF_930/q_reg
*742 DFF_1059/q_reg
*743 DFF_1027/q_reg
*744 DFF_995/q_reg
*745 DFF_925/q_reg
*746 DFF_994/q_reg
*747 DFF_924/q_reg
*748 DFF_850/q_reg
*749 DFF_962/q_reg
*750 DFF_1090/q_reg
*751 DFF_916/q_reg
*752 DFF_893/q_reg
*753 DFF_725/q_reg
*754 DFF_1026/q_reg
*755 DFF_818/q_reg
*756 DFF_1058/q_reg
*757 DFF_861/q_reg
*758 DFF_1149/q_reg
*759 DFF_1046/q_reg
*760 DFF_892/q_reg
*761 DFF_829/q_reg
*762 DFF_820/q_reg
*763 DFF_693/q_reg
*764 DFF_860/q_reg
*765 DFF_1014/q_reg
*766 DFF_828/q_reg
*767 DFF_993/q_reg
*768 DFF_661/q_reg
*769 DFF_629/q_reg
*770 DFF_671/q_reg
*771 DFF_783/q_reg
*772 DFF_605/q_reg
*773 DFF_1025/q_reg
*774 DFF_604/q_reg
*775 NBUFFX2_RVT_G1B1I331
*776 CK_G1B1I341
*777 DFF_1630/q_reg
*778 DFF_1662/q_reg
*779 DFF_1588/q_reg
*780 DFF_1585/q_reg
*781 DFF_1587/q_reg
*782 DFF_1694/q_reg
*783 DFF_1617/q_reg
*784 DFF_1707/q_reg
*785 DFF_1619/q_reg
*786 DFF_1652/q_reg
*787 DFF_1684/q_reg
*788 DFF_1649/q_reg
*789 DFF_1651/q_reg
*790 DFF_1586/q_reg
*791 DFF_70/q_reg
*792 DFF_1618/q_reg
*793 DFF_1584/q_reg
*794 DFF_1683/q_reg
*795 DFF_90/q_reg
*796 DFF_1708/q_reg
*797 DFF_122/q_reg
*798 DFF_1650/q_reg
*799 DFF_1681/q_reg
*800 DFF_1682/q_reg
*801 DFF_1709/q_reg
*802 DFF_1616/q_reg
*803 DFF_154/q_reg
*804 DFF_57/q_reg
*805 DFF_1710/q_reg
*806 DFF_89/q_reg
*807 DFF_165/q_reg
*808 DFF_1648/q_reg
*809 DFF_166/q_reg
*810 DFF_153/q_reg
*811 DFF_121/q_reg
*812 DFF_55/q_reg
*813 DFF_1680/q_reg
*814 DFF_120/q_reg
*815 DFF_151/q_reg
*816 DFF_119/q_reg
*817 DFF_87/q_reg
*818 DFF_1711/q_reg
*819 NBUFFX2_RVT_G1B1I341
*820 CK_G1B1I351
*821 DFF_1403/q_reg
*822 DFF_1324/q_reg
*823 DFF_1439/q_reg
*824 DFF_1407/q_reg
*825 DFF_1231/q_reg
*826 DFF_1199/q_reg
*827 DFF_1299/q_reg
*828 DFF_1203/q_reg
*829 DFF_1166/q_reg
*830 DFF_723/q_reg
*831 DFF_1267/q_reg
*832 DFF_1235/q_reg
*833 DFF_1263/q_reg
*834 DFF_1165/q_reg
*835 DFF_1295/q_reg
*836 DFF_1328/q_reg
*837 DFF_1323/q_reg
*838 DFF_1171/q_reg
*839 DFF_691/q_reg
*840 DFF_1300/q_reg
*841 DFF_1294/q_reg
*842 DFF_1198/q_reg
*843 DFF_1268/q_reg
*844 DFF_627/q_reg
*845 DFF_1204/q_reg
*846 DFF_1262/q_reg
*847 DFF_659/q_reg
*848 DFF_1236/q_reg
*849 DFF_1230/q_reg
*850 DFF_1248/q_reg
*851 DFF_595/q_reg
*852 DFF_1261/q_reg
*853 DFF_1185/q_reg
*854 DFF_1214/q_reg
*855 DFF_1249/q_reg
*856 DFF_1217/q_reg
*857 DFF_1278/q_reg
*858 DFF_1246/q_reg
*859 DFF_1172/q_reg
*860 DFF_1341/q_reg
*861 DFF_1250/q_reg
*862 DFF_1281/q_reg
*863 DFF_1215/q_reg
*864 NBUFFX2_RVT_G1B1I351
*865 CK_G1B1I361
*866 DFF_878/q_reg
*867 DFF_488/q_reg
*868 DFF_616/q_reg
*869 DFF_522/q_reg
*870 DFF_490/q_reg
*871 DFF_458/q_reg
*872 DFF_648/q_reg
*873 DFF_680/q_reg
*874 DFF_425/q_reg
*875 DFF_1211/q_reg
*876 DFF_712/q_reg
*877 DFF_426/q_reg
*878 DFF_521/q_reg
*879 DFF_1243/q_reg
*880 DFF_495/q_reg
*881 DFF_463/q_reg
*882 DFF_489/q_reg
*883 DFF_457/q_reg
*884 DFF_1275/q_reg
*885 DFF_584/q_reg
*886 DFF_1210/q_reg
*887 DFF_431/q_reg
*888 DFF_1342/q_reg
*889 DFF_1206/q_reg
*890 DFF_1068/q_reg
*891 DFF_1307/q_reg
*892 DFF_1343/q_reg
*893 DFF_1311/q_reg
*894 DFF_1087/q_reg
*895 DFF_1055/q_reg
*896 DFF_1023/q_reg
*897 DFF_1036/q_reg
*898 DFF_1238/q_reg
*899 DFF_1012/q_reg
*900 DFF_430/q_reg
*901 DFF_462/q_reg
*902 DFF_494/q_reg
*903 NBUFFX2_RVT_G1B1I361
*904 CK_G1B1I371
*905 DFF_224/q_reg
*906 DFF_225/q_reg
*907 DFF_317/q_reg
*908 DFF_285/q_reg
*909 DFF_195/q_reg
*910 DFF_251/q_reg
*911 DFF_320/q_reg
*912 DFF_321/q_reg
*913 DFF_347/q_reg
*914 DFF_283/q_reg
*915 DFF_256/q_reg
*916 DFF_382/q_reg
*917 DFF_322/q_reg
*918 DFF_362/q_reg
*919 DFF_213/q_reg
*920 DFF_381/q_reg
*921 DFF_315/q_reg
*922 DFF_229/q_reg
*923 DFF_245/q_reg
*924 DFF_214/q_reg
*925 DFF_377/q_reg
*926 DFF_261/q_reg
*927 DFF_228/q_reg
*928 DFF_380/q_reg
*929 DFF_259/q_reg
*930 DFF_227/q_reg
*931 DFF_246/q_reg
*932 DFF_325/q_reg
*933 DFF_293/q_reg
*934 DFF_277/q_reg
*935 DFF_260/q_reg
*936 DFF_291/q_reg
*937 DFF_310/q_reg
*938 DFF_278/q_reg
*939 DFF_378/q_reg
*940 DFF_311/q_reg
*941 DFF_292/q_reg
*942 DFF_341/q_reg
*943 DFF_309/q_reg
*944 DFF_323/q_reg
*945 DFF_342/q_reg
*946 DFF_360/q_reg
*947 DFF_379/q_reg
*948 DFF_361/q_reg
*949 DFF_343/q_reg
*950 NBUFFX2_RVT_G1B1I371
*951 CK_G1B1I381
*952 DFF_882/q_reg
*953 DFF_1047/q_reg
*954 DFF_1015/q_reg
*955 DFF_971/q_reg
*956 DFF_1110/q_reg
*957 DFF_1078/q_reg
*958 DFF_1129/q_reg
*959 DFF_1056/q_reg
*960 DFF_1115/q_reg
*961 DFF_1083/q_reg
*962 DFF_982/q_reg
*963 DFF_1051/q_reg
*964 DFF_961/q_reg
*965 DFF_1024/q_reg
*966 DFF_981/q_reg
*967 DFF_1019/q_reg
*968 DFF_1150/q_reg
*969 DFF_387/q_reg
*970 DFF_1151/q_reg
*971 DFF_1088/q_reg
*972 DFF_992/q_reg
*973 DFF_1089/q_reg
*974 DFF_1130/q_reg
*975 DFF_1109/q_reg
*976 DFF_1077/q_reg
*977 DFF_603/q_reg
*978 DFF_413/q_reg
*979 DFF_420/q_reg
*980 DFF_516/q_reg
*981 DFF_1045/q_reg
*982 DFF_1013/q_reg
*983 DFF_484/q_reg
*984 DFF_452/q_reg
*985 DFF_991/q_reg
*986 DFF_388/q_reg
*987 DFF_570/q_reg
*988 DFF_517/q_reg
*989 DFF_389/q_reg
*990 DFF_529/q_reg
*991 NBUFFX2_RVT_G1B1I381
*992 CK_G1B1I241
*993 DFF_1592/q_reg
*994 DFF_1624/q_reg
*995 DFF_1468/q_reg
*996 DFF_1254/q_reg
*997 DFF_1656/q_reg
*998 DFF_1453/q_reg
*999 DFF_1222/q_reg
*1000 DFF_1688/q_reg
*1001 DFF_1404/q_reg
*1002 DFF_1436/q_reg
*1003 DFF_1395/q_reg
*1004 DFF_1190/q_reg
*1005 DFF_1160/q_reg
*1006 DFF_1286/q_reg
*1007 DFF_1702/q_reg
*1008 DFF_1427/q_reg
*1009 DFF_1703/q_reg
*1010 DFF_1389/q_reg
*1011 DFF_1421/q_reg
*1012 DFF_1331/q_reg
*1013 DFF_1291/q_reg
*1014 DFF_1689/q_reg
*1015 DFF_1658/q_reg
*1016 DFF_1701/q_reg
*1017 DFF_1336/q_reg
*1018 DFF_1626/q_reg
*1019 DFF_1159/q_reg
*1020 DFF_1259/q_reg
*1021 DFF_1690/q_reg
*1022 DFF_1337/q_reg
*1023 DFF_1594/q_reg
*1024 DFF_1657/q_reg
*1025 DFF_1253/q_reg
*1026 DFF_1285/q_reg
*1027 DFF_1625/q_reg
*1028 DFF_1636/q_reg
*1029 DFF_1593/q_reg
*1030 DFF_1252/q_reg
*1031 DFF_1668/q_reg
*1032 DFF_1220/q_reg
*1033 DFF_1189/q_reg
*1034 DFF_1604/q_reg
*1035 DFF_1338/q_reg
*1036 DFF_1572/q_reg
*1037 DFF_1687/q_reg
*1038 DFF_1339/q_reg
*1039 DFF_1188/q_reg
*1040 NBUFFX2_RVT_G1B1I24_11
*1041 CK_G1B1I251
*1042 DFF_1344/q_reg
*1043 DFF_1365/q_reg
*1044 DFF_1364/q_reg
*1045 DFF_1363/q_reg
*1046 DFF_1226/q_reg
*1047 DFF_1296/q_reg
*1048 DFF_1225/q_reg
*1049 DFF_1264/q_reg
*1050 DFF_1194/q_reg
*1051 DFF_1327/q_reg
*1052 DFF_1258/q_reg
*1053 DFF_1193/q_reg
*1054 DFF_1289/q_reg
*1055 DFF_1232/q_reg
*1056 DFF_1290/q_reg
*1057 DFF_1168/q_reg
*1058 DFF_1192/q_reg
*1059 DFF_1334/q_reg
*1060 DFF_1169/q_reg
*1061 DFF_1200/q_reg
*1062 DFF_1333/q_reg
*1063 DFF_1402/q_reg
*1064 DFF_1256/q_reg
*1065 DFF_1266/q_reg
*1066 DFF_1288/q_reg
*1067 DFF_1161/q_reg
*1068 DFF_1162/q_reg
*1069 DFF_1202/q_reg
*1070 DFF_1234/q_reg
*1071 DFF_1224/q_reg
*1072 DFF_1332/q_reg
*1073 DFF_1298/q_reg
*1074 DFF_1164/q_reg
*1075 DFF_1163/q_reg
*1076 DFF_1223/q_reg
*1077 DFF_1335/q_reg
*1078 DFF_1167/q_reg
*1079 DFF_1287/q_reg
*1080 DFF_1195/q_reg
*1081 DFF_1170/q_reg
*1082 DFF_1255/q_reg
*1083 DFF_1191/q_reg
*1084 DFF_1227/q_reg
*1085 NBUFFX2_RVT_G1B1I25_11
*1086 CK_G1B1I261
*1087 DFF_677/q_reg
*1088 DFF_912/q_reg
*1089 DFF_942/q_reg
*1090 DFF_943/q_reg
*1091 DFF_1094/q_reg
*1092 DFF_880/q_reg
*1093 DFF_1145/q_reg
*1094 DFF_1062/q_reg
*1095 DFF_1093/q_reg
*1096 DFF_1030/q_reg
*1097 DFF_1061/q_reg
*1098 DFF_1146/q_reg
*1099 DFF_848/q_reg
*1100 DFF_816/q_reg
*1101 DFF_941/q_reg
*1102 DFF_699/q_reg
*1103 DFF_667/q_reg
*1104 DFF_1029/q_reg
*1105 DFF_997/q_reg
*1106 DFF_1092/q_reg
*1107 DFF_731/q_reg
*1108 DFF_635/q_reg
*1109 DFF_578/q_reg
*1110 DFF_582/q_reg
*1111 DFF_966/q_reg
*1112 DFF_965/q_reg
*1113 DFF_577/q_reg
*1114 DFF_1028/q_reg
*1115 DFF_631/q_reg
*1116 DFF_1147/q_reg
*1117 DFF_600/q_reg
*1118 DFF_599/q_reg
*1119 DFF_964/q_reg
*1120 DFF_940/q_reg
*1121 DFF_601/q_reg
*1122 DFF_576/q_reg
*1123 DFF_694/q_reg
*1124 DFF_914/q_reg
*1125 DFF_602/q_reg
*1126 DFF_726/q_reg
*1127 DFF_598/q_reg
*1128 DFF_967/q_reg
*1129 DFF_662/q_reg
*1130 DFF_784/q_reg
*1131 DFF_630/q_reg
*1132 DFF_1095/q_reg
*1133 DFF_999/q_reg
*1134 DFF_1031/q_reg
*1135 DFF_963/q_reg
*1136 DFF_1091/q_reg
*1137 NBUFFX2_RVT_G1B1I261
*1138 CK_G1B1I271
*1139 DFF_480/q_reg
*1140 DFF_448/q_reg
*1141 DFF_532/q_reg
*1142 DFF_531/q_reg
*1143 DFF_500/q_reg
*1144 DFF_499/q_reg
*1145 DFF_467/q_reg
*1146 DFF_562/q_reg
*1147 DFF_492/q_reg
*1148 DFF_524/q_reg
*1149 DFF_563/q_reg
*1150 DFF_525/q_reg
*1151 DFF_493/q_reg
*1152 DFF_428/q_reg
*1153 DFF_460/q_reg
*1154 DFF_552/q_reg
*1155 DFF_535/q_reg
*1156 DFF_503/q_reg
*1157 DFF_554/q_reg
*1158 DFF_534/q_reg
*1159 DFF_551/q_reg
*1160 DFF_550/q_reg
*1161 DFF_553/q_reg
*1162 DFF_438/q_reg
*1163 DFF_533/q_reg
*1164 DFF_1052/q_reg
*1165 DFF_1123/q_reg
*1166 DFF_1020/q_reg
*1167 DFF_470/q_reg
*1168 DFF_502/q_reg
*1169 DFF_437/q_reg
*1170 DFF_1241/q_reg
*1171 DFF_501/q_reg
*1172 DFF_469/q_reg
*1173 DFF_1273/q_reg
*1174 DFF_1084/q_reg
*1175 DFF_1116/q_reg
*1176 DFF_1122/q_reg
*1177 DFF_338/q_reg
*1178 DFF_306/q_reg
*1179 DFF_242/q_reg
*1180 NBUFFX2_RVT_G1B1I271
*1181 CK_G1B1I291
*1182 DFF_206/q_reg
*1183 DFF_207/q_reg
*1184 DFF_1103/q_reg
*1185 DFF_1071/q_reg
*1186 DFF_300/q_reg
*1187 DFF_368/q_reg
*1188 DFF_369/q_reg
*1189 DFF_334/q_reg
*1190 DFF_302/q_reg
*1191 DFF_332/q_reg
*1192 DFF_370/q_reg
*1193 DFF_333/q_reg
*1194 DFF_237/q_reg
*1195 DFF_335/q_reg
*1196 DFF_303/q_reg
*1197 DFF_271/q_reg
*1198 DFF_84/q_reg
*1199 DFF_52/q_reg
*1200 DFF_204/q_reg
*1201 DFF_301/q_reg
*1202 DFF_269/q_reg
*1203 DFF_233/q_reg
*1204 DFF_371/q_reg
*1205 DFF_329/q_reg
*1206 DFF_234/q_reg
*1207 DFF_116/q_reg
*1208 DFF_141/q_reg
*1209 DFF_297/q_reg
*1210 DFF_265/q_reg
*1211 DFF_148/q_reg
*1212 DFF_330/q_reg
*1213 DFF_50/q_reg
*1214 DFF_19/q_reg
*1215 DFF_298/q_reg
*1216 DFF_266/q_reg
*1217 DFF_82/q_reg
*1218 DFF_18/q_reg
*1219 DFF_63/q_reg
*1220 DFF_178/q_reg
*1221 DFF_114/q_reg
*1222 DFF_171/q_reg
*1223 DFF_17/q_reg
*1224 DFF_30/q_reg
*1225 NBUFFX2_RVT_G1B1I291
*1226 CK_G1B1I301
*1227 DFF_1704/q_reg
*1228 DFF_1655/q_reg
*1229 DFF_1686/q_reg
*1230 DFF_1723/q_reg
*1231 DFF_1251/q_reg
*1232 DFF_1633/q_reg
*1233 DFF_1283/q_reg
*1234 DFF_1540/q_reg
*1235 DFF_1340/q_reg
*1236 DFF_1591/q_reg
*1237 DFF_1187/q_reg
*1238 DFF_1219/q_reg
*1239 DFF_1665/q_reg
*1240 DFF_1560/q_reg
*1241 DFF_1635/q_reg
*1242 DFF_1559/q_reg
*1243 DFF_1667/q_reg
*1244 DFF_1726/q_reg
*1245 DFF_1569/q_reg
*1246 DFF_1724/q_reg
*1247 DFF_1603/q_reg
*1248 DFF_1725/q_reg
*1249 DFF_1539/q_reg
*1250 DFF_1664/q_reg
*1251 DFF_1727/q_reg
*1252 DFF_1700/q_reg
*1253 DFF_1571/q_reg
*1254 DFF_1544/q_reg
*1255 DFF_1705/q_reg
*1256 DFF_1568/q_reg
*1257 DFF_1538/q_reg
*1258 DFF_1666/q_reg
*1259 DFF_1634/q_reg
*1260 DFF_1685/q_reg
*1261 DFF_1706/q_reg
*1262 DFF_1561/q_reg
*1263 DFF_1570/q_reg
*1264 DFF_1602/q_reg
*1265 DFF_1691/q_reg
*1266 NBUFFX2_RVT_G1B1I301
*1267 CK_G1B1I311
*1268 DFF_1292/q_reg
*1269 DFF_1309/q_reg
*1270 DFF_1228/q_reg
*1271 DFF_1260/q_reg
*1272 DFF_1548/q_reg
*1273 DFF_1213/q_reg
*1274 DFF_1653/q_reg
*1275 DFF_1277/q_reg
*1276 DFF_1245/q_reg
*1277 DFF_1547/q_reg
*1278 DFF_1550/q_reg
*1279 DFF_586/q_reg
*1280 DFF_587/q_reg
*1281 DFF_620/q_reg
*1282 DFF_1546/q_reg
*1283 DFF_683/q_reg
*1284 DFF_652/q_reg
*1285 DFF_1556/q_reg
*1286 DFF_714/q_reg
*1287 DFF_651/q_reg
*1288 DFF_619/q_reg
*1289 DFF_684/q_reg
*1290 DFF_682/q_reg
*1291 DFF_756/q_reg
*1292 DFF_715/q_reg
*1293 DFF_1552/q_reg
*1294 DFF_650/q_reg
*1295 DFF_716/q_reg
*1296 DFF_755/q_reg
*1297 DFF_590/q_reg
*1298 DFF_589/q_reg
*1299 DFF_588/q_reg
*1300 DFF_621/q_reg
*1301 DFF_754/q_reg
*1302 DFF_105/q_reg
*1303 DFF_3/q_reg
*1304 DFF_72/q_reg
*1305 DFF_653/q_reg
*1306 DFF_137/q_reg
*1307 DFF_40/q_reg
*1308 DFF_4/q_reg
*1309 DFF_104/q_reg
*1310 DFF_136/q_reg
*1311 DFF_183/q_reg
*1312 NBUFFX2_RVT_G1B1I311
*1313 CK_G1B1I181
*1314 DFF_1004/q_reg
*1315 DFF_1279/q_reg
*1316 DFF_1205/q_reg
*1317 DFF_1237/q_reg
*1318 DFF_1044/q_reg
*1319 DFF_1322/q_reg
*1320 DFF_1244/q_reg
*1321 DFF_1076/q_reg
*1322 DFF_1301/q_reg
*1323 DFF_1269/q_reg
*1324 DFF_1179/q_reg
*1325 DFF_1276/q_reg
*1326 DFF_1108/q_reg
*1327 DFF_1173/q_reg
*1328 DFF_1321/q_reg
*1329 DFF_687/q_reg
*1330 DFF_758/q_reg
*1331 DFF_626/q_reg
*1332 DFF_1007/q_reg
*1333 DFF_658/q_reg
*1334 DFF_238/q_reg
*1335 DFF_719/q_reg
*1336 DFF_655/q_reg
*1337 DFF_1039/q_reg
*1338 DFF_623/q_reg
*1339 DFF_270/q_reg
*1340 DFF_622/q_reg
*1341 DFF_656/q_reg
*1342 DFF_239/q_reg
*1343 DFF_654/q_reg
*1344 DFF_752/q_reg
*1345 DFF_686/q_reg
*1346 DFF_718/q_reg
*1347 DFF_109/q_reg
*1348 DFF_77/q_reg
*1349 NBUFFX2_RVT_G1B1I18_11
*1350 CK_G1B1I191
*1351 DFF_1621/q_reg
*1352 DFF_1589/q_reg
*1353 DFF_1583/q_reg
*1354 DFF_1558/q_reg
*1355 DFF_1647/q_reg
*1356 DFF_1615/q_reg
*1357 DFF_1545/q_reg
*1358 DFF_1562/q_reg
*1359 DFF_1679/q_reg
*1360 DFF_1595/q_reg
*1361 DFF_1627/q_reg
*1362 DFF_1557/q_reg
*1363 DFF_1563/q_reg
*1364 DFF_1551/q_reg
*1365 DFF_1537/q_reg
*1366 DFF_1699/q_reg
*1367 DFF_1596/q_reg
*1368 DFF_1692/q_reg
*1369 DFF_1660/q_reg
*1370 DFF_1564/q_reg
*1371 DFF_1698/q_reg
*1372 DFF_1628/q_reg
*1373 DFF_1553/q_reg
*1374 DFF_1566/q_reg
*1375 DFF_753/q_reg
*1376 DFF_1565/q_reg
*1377 DFF_1597/q_reg
*1378 DFF_1629/q_reg
*1379 DFF_1555/q_reg
*1380 DFF_1536/q_reg
*1381 DFF_1661/q_reg
*1382 DFF_1554/q_reg
*1383 DFF_717/q_reg
*1384 DFF_1567/q_reg
*1385 DFF_1598/q_reg
*1386 DFF_1693/q_reg
*1387 DFF_1631/q_reg
*1388 DFF_1599/q_reg
*1389 DFF_685/q_reg
*1390 DFF_1695/q_reg
*1391 DFF_1697/q_reg
*1392 DFF_1696/q_reg
*1393 NBUFFX2_RVT_G1B1I19_11
*1394 CK_G1B1I201
*1395 DFF_12/q_reg
*1396 DFF_8/q_reg
*1397 DFF_9/q_reg
*1398 DFF_110/q_reg
*1399 DFF_142/q_reg
*1400 DFF_0/q_reg
*1401 DFF_180/q_reg
*1402 DFF_10/q_reg
*1403 DFF_2/q_reg
*1404 DFF_11/q_reg
*1405 DFF_1/q_reg
*1406 DFF_32/q_reg
*1407 DFF_64/q_reg
*1408 DFF_5/q_reg
*1409 DFF_128/q_reg
*1410 DFF_96/q_reg
*1411 DFF_189/q_reg
*1412 DFF_190/q_reg
*1413 DFF_129/q_reg
*1414 DFF_97/q_reg
*1415 DFF_65/q_reg
*1416 DFF_22/q_reg
*1417 DFF_26/q_reg
*1418 DFF_118/q_reg
*1419 DFF_23/q_reg
*1420 DFF_188/q_reg
*1421 DFF_86/q_reg
*1422 DFF_169/q_reg
*1423 DFF_54/q_reg
*1424 DFF_150/q_reg
*1425 DFF_24/q_reg
*1426 DFF_25/q_reg
*1427 DFF_131/q_reg
*1428 DFF_168/q_reg
*1429 NBUFFX2_RVT_G1B1I20_11
*1430 CK_G1B1I211
*1431 DFF_1303/q_reg
*1432 DFF_1271/q_reg
*1433 DFF_1131/q_reg
*1434 DFF_1011/q_reg
*1435 DFF_1137/q_reg
*1436 DFF_276/q_reg
*1437 DFF_1136/q_reg
*1438 DFF_1043/q_reg
*1439 DFF_1102/q_reg
*1440 DFF_308/q_reg
*1441 DFF_1038/q_reg
*1442 DFF_240/q_reg
*1443 DFF_1107/q_reg
*1444 DFF_304/q_reg
*1445 DFF_1070/q_reg
*1446 DFF_1075/q_reg
*1447 DFF_272/q_reg