*SPEF "1481-1998"
*DESIGN "s386"
*DATE "Wed Feb 27 10:16:33 2019"
*VENDOR "Synopsys, Inc."
*PROGRAM "icc_shell"
*VERSION "L-2016.03-SP5-1"
*DESIGN_FLOW "PIN_CAP NONE"
*DIVIDER /
*DELIMITER :
*BUS_DELIMITER [ ]
*T_UNIT 1 NS
*C_UNIT 1 FF
*R_UNIT 1 OHM
*L_UNIT 1 HENRY

*NAME_MAP
*1 GND
*2 VDDA
*3 VSS
*4 v5
*5 v4
*6 v3
*7 v2
*8 v1
*9 v0
*10 CK
*11 VDD
*12 v13_D_9
*13 v13_D_8
*14 v13_D_7
*15 v13_D_6
*16 v13_D_12
*17 v13_D_11
*18 v13_D_10
*19 v6
*20 Lv13_D_11
*21 U125
*22 n100
*23 U123
*24 U121
*25 U118
*26 n99
*27 U124
*28 n98
*29 U90
*30 U87
*31 U68
*32 n95
*33 U82
*34 n97
*35 U104
*36 U73
*37 n96
*38 U98
*39 U97
*40 n106
*41 U71
*42 DFF_1/q_reg
*43 U110
*44 U108
*45 U103
*46 U85
*47 U83
*48 U76
*49 n94
*50 U122
*51 Lv13_D_2
*52 DFF_3/q_reg
*53 n91
*54 U120
*55 U119
*56 n92
*57 U88
*58 U80
*59 n93
*60 U89
*61 U69
*62 U91
*63 U81
*64 Lv13_D_3
*65 DFF_2/q_reg
*66 n90
*67 n89
*68 v9
*69 U115
*70 U92
*71 n105
*72 U95
*73 U79
*74 n88
*75 U86
*76 U72
*77 n102
*78 U113
*79 U75
*80 DFF_0/q_reg
*81 n87
*82 n86
*83 n85
*84 U117
*85 n84
*86 U116
*87 v10
*88 n83
*89 U84
*90 n82
*91 U114
*92 v7
*93 U111
*94 U106
*95 U100
*96 U96
*97 DFF_5/q_reg
*98 v8
*99 U109
*100 U101
*101 U77
*102 DFF_4/q_reg
*103 n104
*104 n80
*105 U112
*106 n79
*107 U107
*108 U105
*109 Lv13_D_1
*110 n78
*111 n81
*112 U99
*113 n77
*114 n101
*115 n76
*116 n75
*117 U78
*118 n103
*119 U94
*120 U93
*121 n73
*122 n71
*123 Lv13_D_6
*124 n72
*125 U70
*126 n70
*127 n69
*128 U74
*129 n68
*130 Lv13_D_4
*131 n67
*132 n65
*133 n63
*134 U102
*135 n66
*136 Lv13_D_5
*137 n62
*138 v11
*139 n61
*140 n74
*141 v12
*142 n64
*143 Lv13_D_0
*144 Lv13_D_7
*145 Lv13_D_10
*146 n60
*147 n59
*148 Lv13_D_8
*149 Lv13_D_12
*150 n57
*151 n56
*152 n58
*153 Lv13_D_9

*PORTS
*1 I *L 0.0 *S 0.0 0.0
*2 I *L 0.0 *S 0.0 0.0
*3 I *L 0.0 *S 0.0 0.0
*4 I *L 0.0 *S 0.0 0.0
*5 I *L 0.0 *S 0.0 0.0
*6 I *L 0.0 *S 0.0 0.0
*7 I *L 0.0 *S 0.0 0.0
*8 I *L 0.0 *S 0.0 0.0
*9 I *L 0.0 *S 0.0 0.0
*10 I *L 0.0 *S 0.0 0.0
*11 I *L 0.0 *S 0.0 0.0
*12 O *L 300.0 *S 0.0 0.0
*13 O *L 300.0 *S 0.0 0.0
*14 O *L 300.0 *S 0.0 0.0
*15 O *L 300.0 *S 0.0 0.0
*16 O *L 300.0 *S 0.0 0.0
*17 O *L 300.0 *S 0.0 0.0
*18 O *L 300.0 *S 0.0 0.0
*19 I *L 0.0 *S 0.0 0.0

*D_NET *20 0.5771036

*CONN
*I *21:Y O *L 0.0 *D NAND3X0_RVT *C 9.256 19.721
*P *17 O *C 9.104 25.02
*N *20:3 *C 9.104 19.744
*N *20:4 *C 9.104 19.744
*N *20:5 *C 8.952 19.288
*N *20:6 *C 8.952 19.741
*N *20:7 *C 9.054 19.767
*N *20:8 *C 9.104 19.79

*CAP
1 *21:Y 0.01541341
2 *17 0.2086519
3 *20:3 0.01376628
4 *20:4 0.00672558
5 *20:5 0.04163984
6 *20:6 0.0296771
7 *20:7 0.01017625
8 *20:8 0.2224182
9 *20:8 *26:9 0.02863495

*RES
1 *20:3 *20:4 1.0
2 *20:5 *21:Y 0.1609091
3 *20:5 *20:6 0.810832
4 *20:6 *20:7 0.1181818
5 *20:7 *20:4 0.04705608
6 *20:3 *20:8 0.02738096
7 *20:8 *17 9.240364

*END

*D_NET *22 2.212376

*CONN
*I *21:A1 I *L 503.5117 *C 9.239 19.136
*I *23:A2 I *L 405.9669 *C 6.672 7.584
*I *24:A1 I *L 503.5117 *C 12.774 7.584
*I *25:Y O *L 0.0 *D AO21X1_RVT *C 10.32 18.088
*N *22:5 *C 6.672 7.584
*N *22:6 *C 10.168 17.16
*N *22:7 *C 10.168 17.16
*N *22:8 *C 9.864 17.464
*N *22:9 *C 9.864 17.464
*N *22:10 *C 10.016 17.464
*N *22:11 *C 10.016 17.464
*N *22:12 *C 10.016 8.648
*N *22:13 *C 10.016 8.648
*N *22:14 *C 6.672 8.648
*N *22:15 *C 6.672 8.648
*N *22:16 *C 9.239 19.136
*N *22:17 *C 12.774 7.584
*N *22:18 *C 12.904 6.824
*N *22:19 *C 12.904 6.824
*N *22:20 *C 10.016 6.824
*N *22:21 *C 10.016 6.824
*N *22:22 *C 10.195 17.19
*N *22:23 *C 10.244 17.16
*N *22:24 *C 10.244 17.16
*N *22:25 *C 9.24 19.089
*N *22:26 *C 9.239 18.984
*N *22:27 *C 9.864 18.984
*N *22:28 *C 9.864 17.16
*N *22:29 *C 10.121 17.16
*N *22:30 *C 12.834 7.584
*N *22:31 *C 12.904 7.583

*CAP
1 *21:A1 0.0
2 *23:A2 0.0104958
3 *24:A1 0.0
4 *25:Y 0.0
5 *22:5 0.07053636
6 *22:6 0.005803959
7 *22:7 0.01277511
8 *22:8 0.01575463
9 *22:9 0.07841649
10 *22:10 0.3705126
11 *22:11 0.01575463
12 *22:12 0.4486263
13 *22:13 0.08413523
14 *22:14 0.08413523
15 *22:15 0.06004057
16 *22:16 0.01247602
17 *22:17 0.01257371
18 *22:18 0.135996
19 *22:19 0.05340047
20 *22:20 0.07811376
21 *22:21 0.135996
22 *22:22 0.02112414
23 *22:23 0.02813731
24 *22:24 0.05070625
25 *22:25 0.01970853
26 *22:26 0.03974194
27 *22:27 0.09624147
28 *22:28 0.02667606
29 *22:29 0.01779558
30 *22:30 0.01849834
31 *22:31 0.0593251
32 *22:13 *88:6 0.07443916
33 *22:14 *88:21 0.07443916

*RES
1 *22:5 *23:A2 1.0
2 *22:6 *22:7 1.0
3 *22:8 *22:9 0.5
4 *22:10 *22:11 0.5
5 *22:12 *22:13 0.5
6 *22:14 *22:15 0.5
7 *22:16 *21:A1 1.0
8 *22:17 *24:A1 1.0
9 *22:18 *22:19 0.25
10 *22:20 *22:21 0.5
11 *22:7 *22:22 0.095
12 *22:22 *22:23 0.09999999
13 *22:23 *25:Y 1e-07
14 *22:22 *22:24 0.09999999
15 *22:24 *25:Y 1e-07
16 *22:7 *22:24 0.03755565
17 *22:24 *22:23 1e-07
18 *22:5 *22:15 1.805674
19 *22:25 *22:16 0.0475
20 *22:26 *22:25 0.225625
21 *22:26 *22:27 1.024295
22 *22:28 *22:9 0.4645067
23 *22:9 *22:27 2.616094
24 *22:28 *22:29 0.3687532
25 *22:29 *22:6 0.01424243
26 *22:17 *22:30 0.03448276
27 *22:30 *22:31 0.1834483
28 *22:19 *22:31 1.267713
29 *22:14 *22:13 5.876158
30 *22:8 *22:11 0.2068502
31 *22:21 *22:18 5.059045
32 *22:20 *22:12 3.162879
33 *22:12 *22:10 15.6441

*END

*D_NET *26 0.4051895

*CONN
*I *21:A2 I *L 474.3959 *C 9.408 19.288
*I *27:Y O *L 0.0 *D AO221X1_RVT *C 9.408 15.331
*N *26:3 *C 9.408 19.288
*N *26:4 *C 9.256 16.4
*N *26:5 *C 9.256 16.4
*N *26:6 *C 9.271 16.275
*N *26:7 *C 8.952 18.376
*N *26:8 *C 9.256 18.376
*N *26:9 *C 8.952 19.265
*N *26:10 *C 9.361 19.288
*N *26:11 *C 9.256 16.446

*CAP
1 *21:A2 0.0
2 *27:Y 0.003236949
3 *26:3 0.005627503
4 *26:4 0.01188418
5 *26:5 0.009989458
6 *26:6 0.01322641
7 *26:7 0.04594657
8 *26:8 0.05276547
9 *26:9 0.04599481
10 *26:10 0.02402319
11 *26:11 0.0463022
12 *26:9 *20:8 0.02863495
13 *26:11 *77:34 0.05702564
14 *26:11 *141:16 0.06053222

*RES
1 *26:3 *21:A2 1.0
2 *26:4 *26:5 1.0
3 *26:6 *26:5 0.1460625
4 *26:6 *27:Y 0.1
5 *26:7 *26:8 0.4697802
6 *26:7 *26:9 1.493426
7 *26:9 *26:10 0.6446429
8 *26:4 *26:11 0.02738095
9 *26:11 *26:8 3.349298
10 *26:10 *26:3 0.01424243

*END

*D_NET *28 2.585485

*CONN
*I *21:A3 I *L 457.9212 *C 9.712 19.288
*I *29:A2 I *L 622.1061 *C 12.904 18.984
*I *30:Y O *L 0.0 *D NAND4X0_RVT *C 11.84 11.327
*I *31:A3 I *L 413.6168 *C 7.257 12.642
*N *28:5 *C 12.904 18.984
*N *28:6 *C 12.904 18.376
*N *28:7 *C 12.904 18.376
*N *28:8 *C 11.688 10.928
*N *28:9 *C 11.688 10.928
*N *28:10 *C 11.84 18.376
*N *28:11 *C 11.84 18.376
*N *28:12 *C 7.432 12.6
*N *28:13 *C 7.432 12.6
*N *28:14 *C 7.432 11.08
*N *28:15 *C 7.432 11.08
*N *28:16 *C 11.84 11.08
*N *28:17 *C 11.84 11.08
*N *28:18 *C 10.776 18.376
*N *28:19 *C 10.776 18.376
*N *28:20 *C 10.776 19.288
*N *28:21 *C 10.776 19.288
*N *28:22 *C 10.766 19.288
*N *28:23 *C 7.432 12.554
*N *28:24 *C 10.776 19.242
*N *28:25 *C 11.688 11.08
*N *28:26 *C 12.904 18.938

*CAP
1 *21:A3 0.08820807
2 *29:A2 0.0
3 *30:Y 0.01610584
4 *31:A3 0.05409878
5 *28:5 0.01066108
6 *28:6 0.04750606
7 *28:7 0.02860619
8 *28:8 0.01860366
9 *28:9 0.01610584
10 *28:10 0.09489338
11 *28:11 0.1314427
12 *28:12 0.01564504
13 *28:13 0.05409878
14 *28:14 0.2105597
15 *28:15 0.04440627
16 *28:16 0.2105597
17 *28:17 0.1387323
18 *28:18 0.04738732
19 *28:19 0.04699796
20 *28:20 0.01180987
21 *28:21 0.008008216
22 *28:22 0.09621628
23 *28:23 0.06005131
24 *28:24 0.05880783
25 *28:25 0.02589327
26 *28:26 0.03926727
27 *28:23 *4:36 0.06172679
28 *28:15 *4:19 0.06172679
29 *28:11 *81:14 0.1925291
30 *28:17 *81:13 0.1925291
31 *28:11 *87:10 0.2511507
32 *28:17 *87:12 0.2511507

*RES
1 *28:5 *29:A2 1.0
2 *28:6 *28:7 0.5
3 *28:8 *28:9 1.0
4 *28:10 *28:11 0.5
5 *28:12 *28:13 1.0
6 *28:14 *28:15 0.5
7 *28:16 *28:17 0.5
8 *28:18 *28:19 0.5
9 *28:20 *28:21 1.0
10 *31:A3 *28:13 0.1292135
11 *21:A3 *28:22 2.009403
12 *28:22 *28:21 0.002564102
13 *28:9 *30:Y 0.3066667
14 *28:23 *28:12 0.02738095
15 *28:15 *28:23 2.539146
16 *28:24 *28:20 0.02738095
17 *28:19 *28:24 1.45779
18 *28:8 *28:25 0.2021549
19 *28:25 *28:17 0.1855529
20 *28:17 *28:11 12.93007
21 *28:26 *28:5 0.02738096
22 *28:7 *28:26 0.9200647
23 *28:14 *28:16 7.775058
24 *28:18 *28:10 1.809447
25 *28:10 *28:6 1.809447

*END

*D_NET *32 1.233029

*CONN
*I *27:A5 I *L 493.3372 *C 9.864 15.771
*I *33:Y O *L 0.0 *D NAND3X0_RVT *C 9.408 10.342
*I *31:A1 I *L 458.243 *C 7.694 12.501
*N *32:4 *C 7.888 13.512
*N *32:5 *C 7.888 13.512
*N *32:6 *C 9.864 13.512
*N *32:7 *C 9.864 13.512
*N *32:8 *C 9.864 15.696
*N *32:9 *C 9.864 15.696
*N *32:10 *C 7.888 12.752
*N *32:11 *C 7.888 12.752
*N *32:12 *C 9.712 10.928
*N *32:13 *C 9.712 10.928
*N *32:14 *C 9.712 10.168
*N *32:15 *C 9.712 10.168
*N *32:16 *C 7.888 10.168
*N *32:17 *C 7.888 10.168
*N *32:18 *C 7.888 12.48
*N *32:19 *C 9.697 10.776
*N *32:20 *C 7.888 12.706
*N *32:21 *C 7.888 12.798
*N *32:22 *C 9.712 10.882
*N *32:23 *C 9.864 15.65

*CAP
1 *27:A5 0.01510857
2 *33:Y 0.0167331
3 *31:A1 0.01385025
4 *32:4 0.0579791
5 *32:5 0.03927701
6 *32:6 0.0579791
7 *32:7 0.05073044
8 *32:8 0.01187283
9 *32:9 0.01510857
10 *32:10 0.01523713
11 *32:11 0.01304748
12 *32:12 0.01358666
13 *32:13 0.00801923
14 *32:14 0.07888996
15 *32:15 0.04560669
16 *32:16 0.07888996
17 *32:17 0.06860213
18 *32:18 0.02689773
19 *32:19 0.02475233
20 *32:20 0.07224916
21 *32:21 0.0508671
22 *32:22 0.05919335
23 *32:23 0.06260327
24 *32:14 *4:16 0.01446103
25 *32:16 *4:18 0.01446103
26 *32:20 *4:36 0.05371996
27 *32:17 *4:19 0.05371996
28 *32:23 *77:34 0.06310824
29 *32:7 *77:33 0.06310824
30 *32:6 *118:13 0.07336902

*RES
1 *32:4 *32:5 0.5
2 *32:6 *32:7 0.5
3 *32:8 *32:9 1.0
4 *32:10 *32:11 1.0
5 *32:12 *32:13 1.0
6 *32:14 *32:15 0.5
7 *32:16 *32:17 0.5
8 *31:A1 *32:18 0.266
9 *32:18 *32:11 0.4393847
10 *33:Y *32:19 0.1609091
11 *32:19 *32:13 0.1125
12 *32:9 *27:A5 0.04040405
13 *32:20 *32:10 0.05476191
14 *32:10 *32:21 0.05476191
15 *32:17 *32:20 4.436333
16 *32:21 *32:5 1.191393
17 *32:22 *32:12 0.02738095
18 *32:15 *32:22 1.188455
19 *32:23 *32:8 0.02738096
20 *32:7 *32:23 3.722793
21 *32:16 *32:14 3.165485
22 *32:4 *32:6 3.436322

*END

*D_NET *34 0.8852816

*CONN
*I *27:A1 I *L 451.8021 *C 10.624 15.944
*I *27:A3 I *L 459.9452 *C 10.168 15.184
*I *35:A2 I *L 474.3959 *C 12.752 12.614
*I *36:Y O *L 0.0 *D INVX0_RVT *C 13.512 15.64
*N *34:5 *C 10.168 15.184
*N *34:6 *C 10.168 15.336
*N *34:7 *C 10.168 15.336
*N *34:8 *C 13.512 15.64
*N *34:9 *C 13.512 15.336
*N *34:10 *C 13.512 15.336
*N *34:11 *C 10.624 15.944
*N *34:12 *C 10.624 15.336
*N *34:13 *C 10.624 15.336
*N *34:14 *C 12.752 12.614
*N *34:15 *C 12.752 15.336
*N *34:16 *C 12.752 15.336
*N *34:17 *C 10.624 15.898
*N *34:18 *C 12.752 12.66
*N *34:19 *C 13.512 15.594

*CAP
1 *27:A1 0.0
2 *27:A3 0.0
3 *35:A2 0.0
4 *36:Y 0.0
5 *34:5 0.01895143
6 *34:6 0.01076417
7 *34:7 0.01895143
8 *34:8 0.0156083
9 *34:9 0.01078174
10 *34:10 0.02284323
11 *34:11 0.01051166
12 *34:12 0.01260271
13 *34:13 0.030236
14 *34:14 0.01347286
15 *34:15 0.01262028
16 *34:16 0.1071406
17 *34:17 0.04074765
18 *34:18 0.1206134
19 *34:19 0.03845153
20 *34:9 *40:26 0.01560602
21 *34:15 *40:26 0.07791234
22 *34:12 *40:26 0.06230632
23 *34:6 *40:26 1e-07
24 *34:16 *9:33 0.05059268
25 *34:18 *9:35 0.05059268
26 *34:9 *122:14 0.01560602
27 *34:15 *122:14 0.05574896
28 *34:12 *122:4 0.05638119
29 *34:6 *122:4 0.01623826

*RES
1 *34:5 *27:A3 1.0
2 *34:6 *34:7 0.5
3 *34:8 *36:Y 1.0
4 *34:9 *34:10 0.5
5 *34:11 *27:A1 1.0
6 *34:12 *34:13 0.5
7 *34:14 *35:A2 1.0
8 *34:15 *34:16 0.5
9 *34:5 *34:7 0.2068502
10 *34:17 *34:11 0.02738095
11 *34:13 *34:17 0.9200649
12 *34:14 *34:18 0.02738095
13 *34:18 *34:16 4.683543
14 *34:19 *34:8 0.02738095
15 *34:10 *34:19 0.3907956
16 *34:6 *34:12 0.7338625
17 *34:12 *34:15 3.702564
18 *34:15 *34:9 1.269887

*END

*D_NET *37 1.077958

*CONN
*I *27:A4 I *L 494.3008 *C 10.32 16.126
*I *38:A4 I *L 436.4636 *C 16.248 15.944
*I *39:Y O *L 0.0 *D NAND2X0_RVT *C 14.424 14.668
*N *37:4 *C 10.624 16.116
*N *37:5 *C 10.624 16.116
*N *37:6 *C 10.624 16.248
*N *37:7 *C 10.624 16.248
*N *37:8 *C 13.968 16.248
*N *37:9 *C 13.968 16.248
*N *37:10 *C 13.968 14.12
*N *37:11 *C 13.968 14.12
*N *37:12 *C 16.248 16.248
*N *37:13 *C 16.248 16.248
*N *37:14 *C 16.248 15.944
*N *37:15 *C 10.583 16.139
*N *37:16 *C 13.968 14.166
*N *37:17 *C 16.248 15.99

*CAP
1 *27:A4 0.02780886
2 *38:A4 0.0
3 *39:Y 0.0361127
4 *37:4 0.01522559
5 *37:5 0.006726921
6 *37:6 0.006611183
7 *37:7 0.01522559
8 *37:8 0.1154791
9 *37:9 0.09348536
10 *37:10 0.0140436
11 *37:11 0.0361127
12 *37:12 0.108868
13 *37:13 0.02306968
14 *37:14 0.01437854
15 *37:15 0.03453578
16 *37:16 0.107529
17 *37:17 0.03744822
18 *37:9 *68:32 0.03325586
19 *37:16 *68:32 0.03325586
20 *37:8 *144:5 0.05335411
21 *37:6 *144:11 0.05335411
22 *37:8 *152:5 0.1060386
23 *37:6 *152:7 0.1060386

*RES
1 *37:4 *37:5 1.0
2 *37:6 *37:7 0.5
3 *37:8 *37:9 0.5
4 *37:10 *37:11 1.0
5 *37:12 *37:13 0.5
6 *37:14 *38:A4 1.0
7 *27:A4 *37:15 0.472
8 *37:15 *37:5 0.04705608
9 *37:11 *39:Y 0.7716668
10 *37:4 *37:7 0.1796331
11 *37:10 *37:16 0.02738096
12 *37:16 *37:9 3.620431
13 *37:14 *37:17 0.02738095
14 *37:17 *37:13 0.3958902
15 *37:6 *37:8 5.874642
16 *37:8 *37:12 3.976071

*END

*D_NET *40 4.489181

*CONN
*I *41:A3 I *L 480.044 *C 17.635 5.152
*I *42:QN O *L 0.0 *D DFFX1_RVT *C 17.038 10.442
*I *27:A2 I *L 471.5846 *C 10.413 15.64
*I *43:A3 I *L 455.9501 *C 20.656 15.184
*I *43:A1 I *L 446.419 *C 21.112 15.944
*I *44:A4 I *L 499.7889 *C 6.054 15.64
*I *45:A3 I *L 457.9212 *C 19.44 10.736
*I *46:A3 I *L 412.1762 *C 19.592 7.584
*I *47:A2 I *L 483.7213 *C 16.096 12.488
*I *48:A3 I *L 412.1762 *C 20.352 7.543
*N *40:11 *C 20.656 15.032
*N *40:12 *C 20.656 15.032
*N *40:13 *C 20.656 15.184
*N *40:14 *C 17.038 10.442
*N *40:15 *C 19.44 15.64
*N *40:16 *C 19.44 15.64
*N *40:17 *C 19.44 15.032
*N *40:18 *C 19.44 15.032
*N *40:19 *C 20.048 7.584
*N *40:20 *C 20.048 7.584
*N *40:21 *C 19.592 10.776
*N *40:22 *C 19.592 10.776
*N *40:23 *C 21.112 15.944
*N *40:24 *C 21.112 15.032
*N *40:25 *C 21.112 15.032
*N *40:26 *C 10.168 15.64
*N *40:27 *C 10.168 15.64
*N *40:28 *C 15.792 10.776
*N *40:29 *C 15.792 10.776
*N *40:30 *C 15.792 12.448
*N *40:31 *C 15.792 12.448
*N *40:32 *C 17.312 10.776
*N *40:33 *C 17.312 10.776
*N *40:34 *C 19.744 7.128
*N *40:35 *C 19.744 7.128
*N *40:36 *C 17.008 10.776
*N *40:37 *C 17.008 10.776
*N *40:38 *C 17.312 5.608
*N *40:39 *C 17.312 5.608
*N *40:40 *C 6.054 15.64
*N *40:41 *C 10.413 15.64
*N *40:42 *C 17.312 7.128
*N *40:43 *C 17.312 7.128
*N *40:44 *C 19.592 10.776
*N *40:45 *C 6.52 15.64
*N *40:46 *C 6.52 15.64
*N *40:47 *C 17.635 5.152
*N *40:48 *C 19.592 15.032
*N *40:49 *C 19.592 15.032
*N *40:50 *C 15.916 12.478
*N *40:51 *C 16.096 12.478
*N *40:52 *C 16.096 12.443
*N *40:53 *C 17.047 10.419
*N *40:54 *C 20.352 7.584
*N *40:55 *C 6.101 15.64
*N *40:56 *C 10.366 15.64
*N *40:57 *C 15.792 12.402
*N *40:58 *C 17.024 10.503
*N *40:59 *C 17.312 10.426
*N *40:60 *C 17.312 10.518
*N *40:61 *C 17.312 5.152
*N *40:62 *C 17.588 5.152
*N *40:63 *C 17.452 5.304
*N *40:64 *C 19.744 7.584
*N *40:65 *C 20.001 7.584
*N *40:66 *C 21.112 15.898

*CAP
1 *41:A3 0.0
2 *42:QN 0.0110054
3 *27:A2 0.0
4 *43:A3 0.0
5 *43:A1 0.0
6 *44:A4 0.0
7 *45:A3 0.02310835
8 *46:A3 0.04625217
9 *47:A2 0.04029503
10 *48:A3 0.02958501
11 *40:11 0.06730456
12 *40:12 0.02224196
13 *40:13 0.02224196
14 *40:14 0.01725862
15 *40:15 0.03271857
16 *40:16 0.2206394
17 *40:17 0.03271857
18 *40:18 0.01007728
19 *40:19 0.005817222
20 *40:20 0.06797965
21 *40:21 0.04943837
22 *40:22 0.1781509
23 *40:23 0.01489868
24 *40:24 0.02288397
25 *40:25 0.0474768
26 *40:26 0.3277888
27 *40:27 0.02029818
28 *40:28 0.01163509
29 *40:29 0.08958349
30 *40:30 0.01233516
31 *40:31 0.01809501
32 *40:32 0.06338588
33 *40:33 0.009774056
34 *40:34 0.1058362
35 *40:35 0.03136342
36 *40:36 0.0255826
37 *40:37 0.03563888
38 *40:38 0.06826933
39 *40:39 0.04996912
40 *40:40 0.005618961
41 *40:41 0.006142463
42 *40:42 0.1741055
43 *40:43 0.01538836
44 *40:44 0.02310835
45 *40:45 0.1071494
46 *40:46 0.03481218
47 *40:47 0.005175307
48 *40:48 0.05449787
49 *40:49 0.1781509
50 *40:50 0.04433831
51 *40:51 0.01622459
52 *40:52 0.01590308
53 *40:53 0.0110054
54 *40:54 0.007857521
55 *40:55 0.04043114
56 *40:56 0.02644064
57 *40:57 0.1019187
58 *40:58 0.0528975
59 *40:59 0.02505822
60 *40:60 0.01944393
61 *40:61 0.02323491
62 *40:62 0.02064111
63 *40:63 0.05773823
64 *40:64 0.04339357
65 *40:65 0.01784737
66 *40:66 0.06237547
67 *40:26 *34:9 0.01560602
68 *40:26 *34:15 0.07791234
69 *40:26 *34:12 0.06230632
70 *40:26 *34:6 1e-07
71 *40:49 *115:14 0.05657427
72 *40:49 *115:7 0.05657427
73 *40:43 *121:4 0.1350508
74 *40:16 *122:6 1e-07
75 *40:16 *122:15 1e-07
76 *40:49 *126:9 0.03776515
77 *40:49 *126:8 0.03776515
78 *40:36 *132:7 0.0534247
79 *40:28 *132:5 0.0534247
80 *40:21 *137:7 0.066631
81 *40:32 *137:5 0.066631
82 *40:33 *140:23 0.0108114
83 *40:60 *140:23 0.0108114
84 *40:59 *140:23 0.1524405
85 *40:43 *140:22 0.1524405
86 *40:16 *152:5 0.1499589
87 *40:26 *152:7 0.2102323
88 *40:45 *152:7 0.06027333

*RES
1 *40:11 *40:12 0.5
2 *40:13 *43:A3 1.0
3 *40:14 *42:QN 1.0
4 *40:15 *40:16 0.5
5 *40:17 *40:18 0.5
6 *40:19 *40:20 1.0
7 *40:21 *40:22 0.25
8 *40:23 *43:A1 1.0
9 *40:24 *40:25 0.5
10 *40:26 *40:27 0.5
11 *40:28 *40:29 0.25
12 *40:30 *40:31 1.0
13 *40:32 *40:33 0.5
14 *40:34 *40:35 0.5
15 *40:36 *40:37 0.5
16 *40:38 *40:39 0.5
17 *40:40 *44:A4 1.0
18 *40:41 *27:A2 1.0
19 *40:42 *40:43 0.5
20 *40:22 *40:44 1.0
21 *40:45 *40:46 0.5
22 *40:47 *41:A3 1.0
23 *40:48 *40:49 0.5
24 *40:31 *40:50 0.05
25 *40:50 *47:A2 0.6175001
26 *47:A2 *40:51 0.01280576
27 *47:A2 *40:52 0.0576259
28 *40:52 *40:51 0.04242425
29 *42:QN *40:53 0.09138095
30 *45:A3 *40:44 0.1787727
31 *46:A3 *40:20 0.6695238
32 *40:20 *48:A3 0.485
33 *48:A3 *40:54 0.03630209
34 *40:40 *40:55 0.01424243
35 *40:55 *40:46 0.6639085
36 *40:27 *40:56 0.2651786
37 *40:56 *40:41 0.01424243
38 *40:57 *40:30 0.02738095
39 *40:29 *40:57 2.81129
40 *40:14 *40:58 0.0475
41 *40:58 *40:37 0.4089286
42 *40:59 *40:60 0.1095238
43 *40:61 *40:62 0.4161904
44 *40:62 *40:47 0.01424243
45 *40:61 *40:63 0.2214286
46 *40:63 *40:39 0.4892858
47 *40:43 *40:59 5.791712
48 *40:60 *40:33 0.3848319
49 *40:22 *40:49 7.504294
50 *40:35 *40:64 0.7376472
51 *40:64 *40:65 0.3687532
52 *40:65 *40:19 0.01424243
53 *40:12 *40:13 0.2068502
54 *40:66 *40:23 0.02738095
55 *40:25 *40:66 1.45779
56 *40:45 *40:26 6.417239
57 *40:26 *40:16 16.45833
58 *40:28 *40:36 2.071511
59 *40:36 *40:32 0.4584127
60 *40:32 *40:21 3.971473
61 *40:38 *40:42 2.621034
62 *40:42 *40:34 4.246731
63 *40:18 *40:48 0.1934908
64 *40:48 *40:11 1.804915
65 *40:11 *40:24 0.7338625
66 *40:17 *40:15 1.007161

*END

*D_NET *49 0.5678091

*CONN
*I *23:A1 I *L 450.5898 *C 6.522 7.24
*I *50:Y O *L 0.0 *D OA22X1_RVT *C 9.56 5.488
*N *49:3 *C 6.824 7.28
*N *49:4 *C 6.824 7.28
*N *49:5 *C 6.824 6.216
*N *49:6 *C 6.824 6.216
*N *49:7 *C 9.56 6.216
*N *49:8 *C 9.56 6.216
*N *49:9 *C 9.56 5.488
*N *49:10 *C 6.814 7.305
*N *49:11 *C 6.824 7.234
*N *49:12 *C 9.56 5.534

*CAP
1 *23:A1 0.02297147
2 *50:Y 0.0
3 *49:3 0.01343874
4 *49:4 0.007447353
5 *49:5 0.0829225
6 *49:6 0.05469604
7 *49:7 0.0829225
8 *49:8 0.04416246
9 *49:9 0.01319315
10 *49:10 0.03041882
11 *49:11 0.06813478
12 *49:12 0.05735561
13 *49:7 *103:19 0.04507281
14 *49:5 *103:7 0.04507281

*RES
1 *49:3 *49:4 1.0
2 *49:5 *49:6 0.5
3 *49:7 *49:8 0.5
4 *49:9 *50:Y 1.0
5 *23:A1 *49:10 0.252
6 *49:10 *49:4 0.04750001
7 *49:11 *49:3 0.02738095
8 *49:6 *49:11 1.727689
9 *49:9 *49:12 0.02738095
10 *49:12 *49:8 1.134889
11 *49:5 *49:7 4.791434

*END

*D_NET *51 0.4154525

*CONN
*I *23:Y O *L 0.0 *D NAND2X0_RVT *C 6.368 7.98
*I *52:D I *L 496.4084 *C 5.487 5.705
*N *51:3 *C 5.304 7.432
*N *51:4 *C 5.304 7.432
*N *51:5 *C 5.304 5.608
*N *51:6 *C 5.304 5.608
*N *51:7 *C 5.304 5.654
*N *51:8 *C 5.304 7.386

*CAP
1 *23:Y 0.09767919
2 *52:D 0.01641901
3 *51:3 0.01016257
4 *51:4 0.09767919
5 *51:5 0.01020774
6 *51:6 0.01641901
7 *51:7 0.08346548
8 *51:8 0.0834203

*RES
1 *51:3 *51:4 1.0
2 *51:5 *51:6 1.0
3 *51:6 *52:D 0.2352941
4 *51:4 *23:Y 2.018
5 *51:5 *51:7 0.02738095
6 *51:8 *51:3 0.02738095
7 *51:7 *51:8 2.997535

*END

*D_NET *53 0.5728037

*CONN
*I *50:A4 I *L 458.7979 *C 10.32 5.936
*I *54:A5 I *L 493.3372 *C 10.32 7.584
*I *55:Y O *L 0.0 *D NAND3X0_RVT *C 11.688 9.689
*N *53:4 *C 10.32 7.584
*N *53:5 *C 10.32 5.936
*N *53:6 *C 10.32 8.952
*N *53:7 *C 10.32 8.952
*N *53:8 *C 11.384 8.952
*N *53:9 *C 11.384 9.256
*N *53:10 *C 10.32 5.982
*N *53:11 *C 10.32 7.538
*N *53:12 *C 10.32 7.63
*N *53:13 *C 10.32 8.906

*CAP
1 *50:A4 0.0
2 *54:A5 0.0
3 *55:Y 0.01254689
4 *53:4 0.01411577
5 *53:5 0.01128311
6 *53:6 0.01187063
7 *53:7 0.08399269
8 *53:8 0.1044818
9 *53:9 0.03303599
10 *53:10 0.08400878
11 *53:11 0.07589133
12 *53:12 0.02383708
13 *53:13 0.02475762
14 *53:13 *68:29 0.01263673
15 *53:12 *68:28 0.01263673
16 *53:12 *68:27 0.03385429
17 *53:12 *68:11 0.03385429

*RES
1 *53:4 *54:A5 1.0
2 *53:5 *50:A4 1.0
3 *53:6 *53:7 1.0
4 *53:7 *53:8 2.032058
5 *53:8 *53:9 0.5288334
6 *53:9 *55:Y 0.1154546
7 *53:5 *53:10 0.02738095
8 *53:11 *53:4 0.05476191
9 *53:4 *53:12 0.05476191
10 *53:13 *53:6 0.02738095
11 *53:10 *53:11 2.683752
12 *53:12 *53:13 2.184817

*END

*D_NET *56 0.7026866

*CONN
*I *50:A3 I *L 492.0692 *C 10.016 6.083
*I *57:A3 I *L 457.9212 *C 14.12 5.952
*I *58:Y O *L 0.0 *D INVX0_RVT *C 13.208 5.608
*N *56:4 *C 14.272 5.912
*N *56:5 *C 14.272 5.912
*N *56:6 *C 14.272 6.216
*N *56:7 *C 14.272 6.216
*N *56:8 *C 10.016 6.083
*N *56:9 *C 10.016 6.52
*N *56:10 *C 10.016 6.52
*N *56:11 *C 13.208 5.608
*N *56:12 *C 13.208 6.216
*N *56:13 *C 13.208 6.216
*N *56:14 *C 10.016 6.129
*N *56:15 *C 13.208 5.654
*N *56:16 *C 14.272 5.958
*N *56:17 *C 11.232 6.52
*N *56:18 *C 11.232 6.216

*CAP
1 *50:A3 0.0
2 *57:A3 0.02099927
3 *58:Y 0.0
4 *56:4 0.01053691
5 *56:5 0.02099927
6 *56:6 0.04781192
7 *56:7 0.01661035
8 *56:8 0.01114957
9 *56:9 0.06372225
10 *56:10 0.02861395
11 *56:11 0.01320219
12 *56:12 0.1049446
13 *56:13 0.03771438
14 *56:14 0.03976352
15 *56:15 0.05091657
16 *56:16 0.02714726
17 *56:17 0.0797237
18 *56:18 0.07313412
19 *56:18 *103:22 0.05569682

*RES
1 *56:4 *56:5 1.0
2 *56:6 *56:7 0.5
3 *56:8 *50:A3 1.0
4 *56:9 *56:10 0.5
5 *56:11 *58:Y 1.0
6 *56:12 *56:13 0.5
7 *57:A3 *56:5 0.1787727
8 *56:8 *56:14 0.02738096
9 *56:14 *56:10 0.6105462
10 *56:11 *56:15 0.02738095
11 *56:15 *56:13 0.9235145
12 *56:4 *56:16 0.02738096
13 *56:16 *56:7 0.3958902
14 *56:9 *56:17 2.07568
15 *56:18 *56:17 0.4584127
16 *56:18 *56:12 3.429969
17 *56:12 *56:6 1.809447

*END

*D_NET *59 2.038756

*CONN
*I *50:A2 I *L 431.813 *C 10.487 6.509
*I *60:A3 I *L 574.3437 *C 7.584 18.984
*I *61:Y O *L 0.0 *D OR2X1_RVT *C 11.536 6.205
*N *59:4 *C 10.472 6.368
*N *59:5 *C 10.472 6.368
*N *59:6 *C 11.08 5.456
*N *59:7 *C 11.08 5.456
*N *59:8 *C 7.584 18.984
*N *59:9 *C 11.08 14.728
*N *59:10 *C 11.08 14.728
*N *59:11 *C 7.432 14.728
*N *59:12 *C 7.432 14.728
*N *59:13 *C 10.497 6.519
*N *59:14 *C 11.392 5.468
*N *59:15 *C 7.432 16.704
*N *59:16 *C 7.584 16.704
*N *59:17 *C 7.585 18.937
*N *59:18 *C 10.519 6.368
*N *59:19 *C 11.08 6.368
*N *59:20 *C 11.08 5.502

*CAP
1 *50:A2 0.03818856
2 *60:A3 0.0
3 *61:Y 0.04088888
4 *59:4 0.006128758
5 *59:5 0.02751922
6 *59:6 0.01052835
7 *59:7 0.02855361
8 *59:8 0.01181726
9 *59:9 0.1091079
10 *59:10 0.3633514
11 *59:11 0.1091079
12 *59:12 0.09179048
13 *59:13 0.01066935
14 *59:14 0.01233527
15 *59:15 0.1001961
16 *59:16 0.09436889
17 *59:17 0.0977805
18 *59:18 0.04151397
19 *59:19 0.4357199
20 *59:20 0.04751169
21 *59:9 *122:14 0.07200051
22 *59:11 *122:4 0.07200051
23 *59:10 *145:13 0.1181058
24 *59:15 *152:8 0.04978551
25 *59:12 *152:8 0.04978551

*RES
1 *59:4 *59:5 1.0
2 *59:6 *59:7 1.0
3 *59:8 *60:A3 1.0
4 *59:9 *59:10 0.5
5 *59:11 *59:12 0.5
6 *50:A2 *59:13 0.06846847
7 *59:5 *50:A2 0.14725
8 *59:7 *61:Y 0.382353
9 *61:Y *59:14 0.1235294
10 *59:12 *59:15 3.435144
11 *59:15 *59:16 0.1983517
12 *59:17 *59:8 0.0475
13 *59:16 *59:17 3.9375
14 *59:4 *59:18 0.01424243
15 *59:18 *59:19 0.9212979
16 *59:6 *59:20 0.02738095
17 *59:20 *59:19 1.452604
18 *59:19 *59:10 14.82955
19 *59:11 *59:9 6.418638

*END

*D_NET *4 3.996994

*CONN
*I *50:A1 I *L 427.6624 *C 10.668 5.743
*I *54:A2 I *L 471.5846 *C 9.712 7.736
*I *44:A2 I *L 450.7719 *C 6.193 16.096
*I *62:A2 I *L 442.1154 *C 7.584 9.104
*I *63:A I *L 518.4735 *C 8.041 15.804
*I *41:A2 I *L 450.7719 *C 17.335 6.064
*P *4 I *C 26.54 1.96
*N *4:8 *C 7.584 9.104
*N *4:9 *C 9.712 7.736
*N *4:10 *C 16.856 1.96
*N *4:11 *C 16.856 1.96
*N *4:12 *C 16.856 6.064
*N *4:13 *C 16.856 6.064
*N *4:14 *C 6.672 16.096
*N *4:15 *C 6.672 16.096
*N *4:16 *C 9.104 9.864
*N *4:17 *C 9.104 9.864
*N *4:18 *C 7.584 9.864
*N *4:19 *C 7.584 9.864
*N *4:20 *C 10.776 5.304
*N *4:21 *C 10.776 5.304
*N *4:22 *C 10.776 5.304
*N *4:23 *C 17.008 5.304
*N *4:24 *C 17.008 5.304
*N *4:25 *C 7.28 15.792
*N *4:26 *C 7.28 15.792
*N *4:27 *C 10.593 5.798
*N *4:28 *C 10.776 5.743
*N *4:29 *C 6.672 16.096
*N *4:30 *C 7.128 16.096
*N *4:31 *C 6.239 16.096
*N *4:32 *C 7.128 15.792
*N *4:33 *C 7.268 15.764
*N *4:34 *C 7.27 15.741
*N *4:35 *C 7.28 12.904
*N *4:36 *C 7.584 12.904
*N *4:37 *C 7.584 9.15
*N *4:38 *C 9.104 7.736
*N *4:39 *C 9.665 7.736
*N *4:40 *C 9.713 7.675
*N *4:41 *C 9.712 5.76
*N *4:42 *C 10.32 5.76
*N *4:43 *C 10.32 5.304
*N *4:44 *C 10.729 5.304
*N *4:45 *C 16.856 6.018
*N *4:46 *C 16.856 5.304

*CAP
1 *50:A1 0.04101213
2 *54:A2 0.0
3 *44:A2 0.05017671
4 *62:A2 0.0
5 *63:A 0.0753661
6 *41:A2 0.0281296
7 *4 0.3949936
8 *4:8 0.01197433
9 *4:9 0.01745853
10 *4:10 0.3949936
11 *4:11 0.1436792
12 *4:12 0.0103565
13 *4:13 0.0281296
14 *4:14 0.02832215
15 *4:15 0.05017671
16 *4:16 0.06649879
17 *4:17 0.1211942
18 *4:18 0.06649879
19 *4:19 0.04155304
20 *4:20 0.007985254
21 *4:21 0.02292374
22 *4:22 0.2763077
23 *4:23 0.2763077
24 *4:24 0.01324849
25 *4:25 0.01590188
26 *4:26 0.0753661
27 *4:27 0.008160559
28 *4:28 0.05577531
29 *4:29 0.0292579
30 *4:30 0.04020226
31 *4:31 0.02584356
32 *4:32 0.01839888
33 *4:33 0.008135203
34 *4:34 0.1743273
35 *4:35 0.1806873
36 *4:36 0.04627115
37 *4:37 0.02635887
38 *4:38 0.1505562
39 *4:39 0.03246196
40 *4:40 0.1117204
41 *4:41 0.1328351
42 *4:42 0.05658269
43 *4:43 0.04127662
44 *4:44 0.0281525
45 *4:45 0.04068948
46 *4:46 0.1872607
47 *4:36 *28:23 0.06172679
48 *4:19 *28:15 0.06172679
49 *4:16 *32:14 0.01446103
50 *4:18 *32:16 0.01446103
51 *4:36 *32:20 0.05371996
52 *4:19 *32:17 0.05371996
53 *4:19 *133:11 0.06130355
54 *4:37 *133:6 0.02236731

*RES
1 *4:8 *62:A2 1.0
2 *4:9 *54:A2 1.0
3 *4:10 *4:11 0.5
4 *4:12 *4:13 1.0
5 *4:14 *4:15 1.0
6 *4:16 *4:17 0.5
7 *4:18 *4:19 0.5
8 *4:20 *4:21 1.0
9 *4:22 *4:20 0.25
10 *4:23 *4:24 0.5
11 *4:25 *4:26 1.0
12 *44:A2 *4:15 0.4649698
13 *4:26 *63:A 1.43
14 *50:A1 *4:27 0.0475
15 *50:A1 *4:28 0.08319329
16 *4:21 *4:28 0.7711875
17 *4:13 *41:A2 0.475961
18 *4:31 *4:14 0.689462
19 *4:14 *4:29 1e-07
20 *4:29 *4:30 0.7298414
21 *4:32 *4:30 0.4584127
22 *4:32 *4:33 0.1589286
23 *4:33 *4:25 0.095
24 *4:34 *4:25 0.095
25 *4:35 *4:34 5.116073
26 *4:35 *4:36 0.4584127
27 *4:8 *4:37 0.02738095
28 *4:37 *4:19 1.185638
29 *4:19 *4:36 5.329484
30 *4:38 *4:17 3.706132
31 *4:38 *4:39 0.9065397
32 *4:39 *4:9 0.05595238
33 *4:40 *4:9 0.095
34 *4:41 *4:42 1.00127
35 *4:41 *4:40 3.369643
36 *4:43 *4:42 0.7252233
37 *4:43 *4:44 0.6367645
38 *4:44 *4:20 0.01044444
39 *4:45 *4:12 0.02738095
40 *4:11 *4:46 5.874642
41 *4:46 *4:45 1.182273
42 *4:46 *4:24 0.1700952
43 *4:18 *4:16 2.624132
44 *4:22 *4:23 11.02946
45 *4:10 *4 17.19371

*END

*D_NET *64 2.020549

*CONN
*I *24:Y O *L 0.0 *D NAND3X0_RVT *C 12.752 6.998
*I *65:D I *L 496.4084 *C 17.616 18.984
*N *64:3 *C 13.36 7.432
*N *64:4 *C 13.36 7.432
*N *64:5 *C 13.36 12.296
*N *64:6 *C 13.36 12.296
*N *64:7 *C 17.616 12.296
*N *64:8 *C 17.616 12.296
*N *64:9 *C 17.616 18.984
*N *64:10 *C 13.36 7.478
*N *64:11 *C 17.616 18.938

*CAP
1 *24:Y 0.04302318
2 *65:D 0.0
3 *64:3 0.01398372
4 *64:4 0.04302318
5 *64:5 0.08199161
6 *64:6 0.1479093
7 *64:7 0.08199161
8 *64:8 0.1911836
9 *64:9 0.01050545
10 *64:10 0.1618931
11 *64:11 0.2016891
12 *64:6 *9:35 0.05625288
13 *64:10 *9:37 0.05625288
14 *64:7 *110:6 0.04839468
15 *64:5 *110:4 0.04839468
16 *64:7 *114:14 0.0344138
17 *64:7 *114:33 0.0856487
18 *64:5 *114:23 0.0512349
19 *64:8 *5:23 0.2608331
20 *64:6 *130:6 0.02842599
21 *64:6 *130:13 0.02842599
22 *64:11 *142:18 0.05427006
23 *64:11 *142:34 0.05427006
24 *64:6 *146:14 0.07261711
25 *64:10 *146:20 0.07261711
26 *64:8 *150:11 0.04565151
27 *64:8 *150:10 0.04565151

*RES
1 *64:3 *64:4 1.0
2 *64:5 *64:6 0.5
3 *64:7 *64:8 0.5
4 *64:9 *65:D 1.0
5 *24:Y *64:4 0.4645455
6 *64:3 *64:10 0.02738096
7 *64:10 *64:6 8.5047
8 *64:11 *64:9 0.02738096
9 *64:8 *64:11 11.76236
10 *64:5 *64:7 7.501868

*END

*D_NET *66 0.4056013

*CONN
*I *24:A2 I *L 474.3959 *C 12.6 7.432
*I *57:Y O *L 0.0 *D NAND3X0_RVT *C 13.664 6.345
*I *61:A2 I *L 610.4156 *C 11.84 5.76
*N *66:4 *C 11.84 5.76
*N *66:5 *C 12.6 5.912
*N *66:6 *C 12.6 5.912
*N *66:7 *C 13.36 5.912
*N *66:8 *C 13.36 5.912
*N *66:9 *C 13.36 5.912
*N *66:10 *C 12.6 7.432
*N *66:11 *C 11.887 5.76
*N *66:12 *C 12.6 5.76
*N *66:13 *C 12.6 7.386

*CAP
1 *24:A2 0.0
2 *57:Y 0.01812595
3 *61:A2 0.0
4 *66:4 0.004718032
5 *66:5 0.02209358
6 *66:6 0.06700787
7 *66:7 0.02209358
8 *66:8 0.01857323
9 *66:9 0.03669918
10 *66:10 0.01112566
11 *66:11 0.03837953
12 *66:12 0.03910997
13 *66:13 0.07268505
14 *66:7 *9:14 0.02326118
15 *66:5 *9:14 0.02326118
16 *66:13 *9:37 0.004233676
17 *66:6 *9:37 0.004233676

*RES
1 *66:4 *61:A2 1.0
2 *66:5 *66:6 0.5
3 *66:7 *66:8 0.5
4 *66:8 *66:9 1.0
5 *66:10 *24:A2 1.0
6 *66:9 *57:Y 0.1881818
7 *66:4 *66:11 0.01424243
8 *66:11 *66:12 1.189233
9 *66:13 *66:10 0.02738096
10 *66:12 *66:6 0.1869842
11 *66:6 *66:13 2.535803
12 *66:5 *66:7 1.27507

*END

*D_NET *67 0.2377381

*CONN
*I *24:A3 I *L 457.9212 *C 12.296 7.392
*I *54:Y O *L 0.0 *D AO221X1_RVT *C 10.776 8.044
*N *67:3 *C 10.928 7.154
*N *67:4 *C 10.928 7.432
*N *67:5 *C 12.296 7.432

*CAP
1 *24:A3 0.09263349
2 *54:Y 0.01026927
3 *67:3 0.02623558
4 *67:4 0.1008616
5 *67:5 0.007738225

*RES
1 *54:Y *67:3 0.2362069
2 *67:3 *67:4 0.4701976
3 *67:4 *24:A3 2.626
4 *24:A3 *67:5 0.05037037

*END

*D_NET *68 2.112672

*CONN